
     RDKit          2D

 82 85  0  0  0  0  0  0  0  0999 V2000
    6.0493   -4.6121    0.0000 C   0  0  0  0  0  0  0  0  0  0  0  0
    4.9346   -3.6084    0.0000 S   0  0  0  0  0  0  0  0  0  0  0  0
    3.5080   -4.0719    0.0000 C   0  0  0  0  0  0  0  0  0  0  0  0
    2.3933   -3.0682    0.0000 C   0  0  0  0  0  0  0  0  0  0  0  0
    0.9667   -3.5318    0.0000 C   0  0  0  0  0  0  0  0  0  0  0  0
   -0.1480   -2.5281    0.0000 C   0  0  0  0  0  0  0  0  0  0  0  0
    0.1639   -1.0609    0.0000 O   0  0  0  0  0  0  0  0  0  0  0  0
    0.6549   -4.9990    0.0000 N   0  0  0  0  0  0  0  0  0  0  0  0
   -2.6893   -1.9879    0.0000 C   0  0  0  0  0  0  0  0  0  0  0  0
   -4.1159   -2.4514    0.0000 C   0  0  0  0  0  0  0  0  0  0  0  0
   -4.4278   -3.9187    0.0000 O   0  0  0  0  0  0  0  0  0  0  0  0
   -1.5746   -2.9916    0.0000 N   0  0  0  0  0  0  0  0  0  0  0  0
   -8.7075   -5.3092    0.0000 C   0  0  0  0  0  0  0  0  0  0  0  0
   -8.3956   -3.8420    0.0000 C   0  0  0  0  0  0  0  0  0  0  0  0
   -6.9691   -3.3785    0.0000 C   0  0  0  0  0  0  0  0  0  0  0  0
   -5.8543   -4.3822    0.0000 C   0  0  0  0  0  0  0  0  0  0  0  0
   -6.6572   -1.9113    0.0000 C   0  0  0  0  0  0  0  0  0  0  0  0
   -7.7719   -0.9076    0.0000 C   0  0  0  0  0  0  0  0  0  0  0  0
   -9.1985   -1.3711    0.0000 O   0  0  0  0  0  0  0  0  0  0  0  0
   -5.2306   -1.4477    0.0000 N   0  0  0  0  0  0  0  0  0  0  0  0
   -9.3776    4.0343    0.0000 O   0  0  0  0  0  0  0  0  0  0  0  0
   -8.2629    3.0306    0.0000 C   0  0  0  0  0  0  0  0  0  0  0  0
   -8.5748    1.5633    0.0000 C   0  0  0  0  0  0  0  0  0  0  0  0
  -10.0013    1.0998    0.0000 C   0  0  0  0  0  0  0  0  0  0  0  0
  -10.3132   -0.3674    0.0000 C   0  0  0  0  0  0  0  0  0  0  0  0
  -11.7398   -0.8309    0.0000 C   0  0  0  0  0  0  0  0  0  0  0  0
  -12.0517   -2.2981    0.0000 N   0  0  0  0  0  0  0  0  0  0  0  0
  -13.4782   -2.7617    0.0000 C   0  0  0  0  0  0  0  0  0  0  0  0
  -13.7901   -4.2289    0.0000 N   0  0  0  0  0  0  0  0  0  0  0  0
  -14.5930   -1.7580    0.0000 N   0  0  0  0  0  0  0  0  0  0  0  0
   -7.4600    0.5597    0.0000 N   0  0  0  0  0  0  0  0  0  0  0  0
   -7.6391    5.9650    0.0000 C   0  0  0  0  0  0  0  0  0  0  0  0
   -6.5244    4.9613    0.0000 C   0  0  0  0  0  0  0  0  0  0  0  0
   -5.0978    5.4248    0.0000 C   0  0  0  0  0  0  0  0  0  0  0  0
   -4.7860    6.8921    0.0000 O   0  0  0  0  0  0  0  0  0  0  0  0
   -6.8363    3.4941    0.0000 N   0  0  0  0  0  0  0  0  0  0  0  0
   -9.0657    5.5015    0.0000 S   0  0  0  0  0  0  0  0  0  0  0  0
   -5.7079    1.5321    0.0000 C   0  0  0  0  0  0  0  0  0  0  0  0
   -5.5511    0.0403    0.0000 C   0  0  0  0  0  0  0  0  0  0  0  0
   -4.1807   -0.5698    0.0000 C   0  0  0  0  0  0  0  0  0  0  0  0
   -2.9672    0.3119    0.0000 C   0  0  0  0  0  0  0  0  0  0  0  0
   -3.1240    1.8037    0.0000 C   0  0  0  0  0  0  0  0  0  0  0  0
   -4.4943    2.4138    0.0000 C   0  0  0  0  0  0  0  0  0  0  0  0
   -1.7537    2.4138    0.0000 C   0  0  0  0  0  0  0  0  0  0  0  0
   -0.7500    1.2990    0.0000 C   0  0  0  0  0  0  0  0  0  0  0  0
   -1.5000    0.0000    0.0000 N   0  0  0  0  0  0  0  0  0  0  0  0
   -1.4418    3.8810    0.0000 C   0  0  0  0  0  0  0  0  0  0  0  0
   -2.5565    4.8847    0.0000 C   0  0  0  0  0  0  0  0  0  0  0  0
   -2.2447    6.3519    0.0000 C   0  0  0  0  0  0  0  0  0  0  0  0
   -0.8181    6.8154    0.0000 O   0  0  0  0  0  0  0  0  0  0  0  0
   -3.9831    4.4211    0.0000 N   0  0  0  0  0  0  0  0  0  0  0  0
   -4.1622    9.8265    0.0000 C   0  0  0  0  0  0  0  0  0  0  0  0
   -3.0475    8.8228    0.0000 C   0  0  0  0  0  0  0  0  0  0  0  0
   -1.6209    9.2863    0.0000 C   0  0  0  0  0  0  0  0  0  0  0  0
   -0.5062    8.2826    0.0000 O   0  0  0  0  0  0  0  0  0  0  0  0
   -3.3594    7.3556    0.0000 N   0  0  0  0  0  0  0  0  0  0  0  0
   -3.8504   11.2937    0.0000 O   0  0  0  0  0  0  0  0  0  0  0  0
    0.1175   11.2171    0.0000 C   0  0  0  0  0  0  0  0  0  0  0  0
    0.4294   12.6843    0.0000 C   0  0  0  0  0  0  0  0  0  0  0  0
   -0.6853   13.6880    0.0000 O   0  0  0  0  0  0  0  0  0  0  0  0
   -1.3091   10.7536    0.0000 N   0  0  0  0  0  0  0  0  0  0  0  0
    7.8604   17.4275    0.0000 C   0  0  0  0  0  0  0  0  0  0  0  0
    7.7037   18.9193    0.0000 C   0  0  0  0  0  0  0  0  0  0  0  0
    6.3333   19.5294    0.0000 C   0  0  0  0  0  0  0  0  0  0  0  0
    5.1198   18.6477    0.0000 C   0  0  0  0  0  0  0  0  0  0  0  0
    5.2766   17.1559    0.0000 C   0  0  0  0  0  0  0  0  0  0  0  0
    6.6469   16.5458    0.0000 C   0  0  0  0  0  0  0  0  0  0  0  0
    3.9063   16.5458    0.0000 C   0  0  0  0  0  0  0  0  0  0  0  0
    2.9026   17.6605    0.0000 C   0  0  0  0  0  0  0  0  0  0  0  0
    3.6526   18.9596    0.0000 N   0  0  0  0  0  0  0  0  0  0  0  0
    3.5944   15.0786    0.0000 C   0  0  0  0  0  0  0  0  0  0  0  0
    2.1678   14.6151    0.0000 C   0  0  0  0  0  0  0  0  0  0  0  0
    1.0531   15.6187    0.0000 C   0  0  0  0  0  0  0  0  0  0  0  0
   -0.3735   15.1552    0.0000 O   0  0  0  0  0  0  0  0  0  0  0  0
    1.8560   13.1478    0.0000 N   0  0  0  0  0  0  0  0  0  0  0  0
    0.5621   19.5569    0.0000 C   0  0  0  0  0  0  0  0  0  0  0  0
    0.2503   18.0897    0.0000 C   0  0  0  0  0  0  0  0  0  0  0  0
   -1.1763   17.6261    0.0000 C   0  0  0  0  0  0  0  0  0  0  0  0
   -2.2910   18.6298    0.0000 O   0  0  0  0  0  0  0  0  0  0  0  0
   -1.4882   16.1589    0.0000 O   0  0  0  0  0  0  0  0  0  0  0  0
    1.3650   17.0860    0.0000 N   0  0  0  0  0  0  0  0  0  0  0  0
   -0.5526   20.5606    0.0000 O   0  0  0  0  0  0  0  0  0  0  0  0
  1  2  1  0
  2  3  1  0
  3  4  1  0
  4  5  1  0
  5  6  1  0
  6  7  2  0
  5  8  1  6
  9 10  1  0
 10 11  2  0
  9 12  1  0
  6 12  1  0
 13 14  1  0
 14 15  1  0
 15 16  1  1
 15 17  1  0
 17 18  1  0
 18 19  2  0
 17 20  1  1
 10 20  1  0
 21 22  2  0
 22 23  1  0
 23 24  1  1
 24 25  1  0
 25 26  1  0
 26 27  1  0
 27 28  1  0
 28 29  1  0
 28 30  2  0
 23 31  1  0
 18 31  1  0
 33 32  1  1
 33 34  1  0
 34 35  2  0
 33 36  1  0
 32 37  1  0
 22 36  1  0
 38 39  2  0
 39 40  1  0
 40 41  2  0
 41 42  1  0
 42 43  2  0
 42 44  1  0
 44 45  2  0
 45 46  1  0
 44 47  1  0
 48 47  1  6
 48 49  1  0
 49 50  2  0
 48 51  1  0
 43 38  1  0
 46 41  1  0
 34 51  1  0
 53 52  1  1
 53 54  1  0
 54 55  2  0
 53 56  1  0
 52 57  1  0
 49 56  1  0
 58 59  1  0
 59 60  2  0
 58 61  1  0
 54 61  1  0
 62 63  2  0
 63 64  1  0
 64 65  2  0
 65 66  1  0
 66 67  2  0
 66 68  1  0
 68 69  2  0
 69 70  1  0
 68 71  1  0
 72 71  1  6
 72 73  1  0
 73 74  2  0
 72 75  1  0
 67 62  1  0
 70 65  1  0
 59 75  1  0
 77 76  1  6
 77 78  1  0
 78 79  2  0
 78 80  1  0
 77 81  1  0
 76 82  1  0
 73 81  1  0
M  END
>  <_BondProps>  (1) 
3:True|14:True|21:True|30:True|45:True|52:True|71:True|78:True

$$$$
