
     RDKit          2D

172181  0  0  0  0  0  0  0  0999 V2000
  -10.1909  -23.1416    0.0000 C   0  0  0  0  0  0  0  0  0  0  0  0
  -11.6827  -23.2984    0.0000 C   0  0  0  0  0  0  0  0  0  0  0  0
  -12.2928  -24.6687    0.0000 C   0  0  0  0  0  0  0  0  0  0  0  0
  -12.5644  -22.0849    0.0000 C   0  0  0  0  0  0  0  0  0  0  0  0
  -14.0562  -22.2417    0.0000 C   0  0  0  0  0  0  0  0  0  0  0  0
  -14.6663  -23.6120    0.0000 O   0  0  0  0  0  0  0  0  0  0  0  0
  -11.9543  -20.7146    0.0000 N   0  0  0  0  0  0  0  0  0  0  0  0
  -16.1581  -23.7688    0.0000 C   0  0  0  0  0  0  0  0  0  0  0  0
  -17.0397  -22.5553    0.0000 C   0  0  0  0  0  0  0  0  0  0  0  0
  -16.4296  -21.1850    0.0000 C   0  0  0  0  0  0  0  0  0  0  0  0
  -17.3113  -19.9714    0.0000 C   0  0  0  0  0  0  0  0  0  0  0  0
  -18.8031  -20.1282    0.0000 O   0  0  0  0  0  0  0  0  0  0  0  0
  -14.9379  -21.0282    0.0000 N   0  0  0  0  0  0  0  0  0  0  0  0
  -16.7682  -25.1391    0.0000 C   0  0  0  0  0  0  0  0  0  0  0  0
  -15.8865  -26.3526    0.0000 N   0  0  0  0  0  0  0  0  0  0  0  0
  -19.6848  -18.9147    0.0000 C   0  0  0  0  0  0  0  0  0  0  0  0
  -21.1766  -19.0715    0.0000 C   0  0  0  0  0  0  0  0  0  0  0  0
  -21.7867  -20.4418    0.0000 C   0  0  0  0  0  0  0  0  0  0  0  0
  -23.2785  -20.5986    0.0000 N   0  0  0  0  0  0  0  0  0  0  0  0
  -19.0747  -17.5444    0.0000 C   0  0  0  0  0  0  0  0  0  0  0  0
  -17.5829  -17.3876    0.0000 C   0  0  0  0  0  0  0  0  0  0  0  0
  -16.9728  -16.0173    0.0000 C   0  0  0  0  0  0  0  0  0  0  0  0
  -17.8545  -14.8037    0.0000 O   0  0  0  0  0  0  0  0  0  0  0  0
  -16.7012  -18.6011    0.0000 N   0  0  0  0  0  0  0  0  0  0  0  0
  -13.1070  -16.3651    0.0000 C   0  0  0  0  0  0  0  0  0  0  0  0
  -13.2638  -14.8733    0.0000 C   0  0  0  0  0  0  0  0  0  0  0  0
  -14.7310  -14.5614    0.0000 C   0  0  0  0  0  0  0  0  0  0  0  0
  -15.4810  -15.8605    0.0000 N   0  0  0  0  0  0  0  0  0  0  0  0
  -14.4773  -16.9752    0.0000 C   0  0  0  0  0  0  0  0  0  0  0  0
  -15.3411  -13.1911    0.0000 C   0  0  0  0  0  0  0  0  0  0  0  0
  -16.8329  -13.0343    0.0000 O   0  0  0  0  0  0  0  0  0  0  0  0
  -12.4959  -10.5510    0.0000 C   0  0  0  0  0  0  0  0  0  0  0  0
  -13.7094   -9.6693    0.0000 C   0  0  0  0  0  0  0  0  0  0  0  0
  -14.9230  -10.5510    0.0000 C   0  0  0  0  0  0  0  0  0  0  0  0
  -14.4594  -11.9776    0.0000 N   0  0  0  0  0  0  0  0  0  0  0  0
  -12.9594  -11.9776    0.0000 C   0  0  0  0  0  0  0  0  0  0  0  0
  -16.3495  -10.0875    0.0000 C   0  0  0  0  0  0  0  0  0  0  0  0
  -17.4643  -11.0912    0.0000 O   0  0  0  0  0  0  0  0  0  0  0  0
  -21.7440   -9.7006    0.0000 C   0  0  0  0  0  0  0  0  0  0  0  0
  -23.1706   -9.2371    0.0000 C   0  0  0  0  0  0  0  0  0  0  0  0
  -23.4825   -7.7699    0.0000 C   0  0  0  0  0  0  0  0  0  0  0  0
  -22.3677   -6.7662    0.0000 C   0  0  0  0  0  0  0  0  0  0  0  0
  -20.9412   -7.2297    0.0000 C   0  0  0  0  0  0  0  0  0  0  0  0
  -20.6293   -8.6969    0.0000 C   0  0  0  0  0  0  0  0  0  0  0  0
  -19.2027   -9.1604    0.0000 C   0  0  0  0  0  0  0  0  0  0  0  0
  -18.0880   -8.1567    0.0000 C   0  0  0  0  0  0  0  0  0  0  0  0
  -18.3999   -6.6895    0.0000 C   0  0  0  0  0  0  0  0  0  0  0  0
  -19.8264   -6.2260    0.0000 O   0  0  0  0  0  0  0  0  0  0  0  0
  -16.6614   -8.6203    0.0000 N   0  0  0  0  0  0  0  0  0  0  0  0
  -24.9091   -7.3063    0.0000 O   0  0  0  0  0  0  0  0  0  0  0  0
  -20.7620   -1.8243    0.0000 C   0  0  0  0  0  0  0  0  0  0  0  0
  -19.3355   -2.2879    0.0000 C   0  0  0  0  0  0  0  0  0  0  0  0
  -18.2207   -1.2842    0.0000 C   0  0  0  0  0  0  0  0  0  0  0  0
  -19.0236   -3.7551    0.0000 C   0  0  0  0  0  0  0  0  0  0  0  0
  -17.5970   -4.2186    0.0000 C   0  0  0  0  0  0  0  0  0  0  0  0
  -16.4823   -3.2149    0.0000 C   0  0  0  0  0  0  0  0  0  0  0  0
  -16.7942   -1.7477    0.0000 O   0  0  0  0  0  0  0  0  0  0  0  0
  -17.2851   -5.6858    0.0000 N   0  0  0  0  0  0  0  0  0  0  0  0
  -13.0922   -5.1050    0.0000 C   0  0  0  0  0  0  0  0  0  0  0  0
  -12.6287   -3.6784    0.0000 C   0  0  0  0  0  0  0  0  0  0  0  0
  -13.8422   -2.7968    0.0000 C   0  0  0  0  0  0  0  0  0  0  0  0
  -15.0557   -3.6784    0.0000 N   0  0  0  0  0  0  0  0  0  0  0  0
  -14.5922   -5.1050    0.0000 C   0  0  0  0  0  0  0  0  0  0  0  0
  -13.8422   -1.2968    0.0000 C   0  0  0  0  0  0  0  0  0  0  0  0
  -15.1412   -0.5468    0.0000 O   0  0  0  0  0  0  0  0  0  0  0  0
  -11.2441    3.2032    0.0000 O   0  0  0  0  0  0  0  0  0  0  0  0
  -11.2441    1.7032    0.0000 C   0  0  0  0  0  0  0  0  0  0  0  0
  -12.5431    0.9532    0.0000 C   0  0  0  0  0  0  0  0  0  0  0  0
  -13.8422    1.7032    0.0000 C   0  0  0  0  0  0  0  0  0  0  0  0
  -15.1412    0.9532    0.0000 C   0  0  0  0  0  0  0  0  0  0  0  0
  -16.4403    1.7032    0.0000 C   0  0  0  0  0  0  0  0  0  0  0  0
  -17.7393    0.9532    0.0000 N   0  0  0  0  0  0  0  0  0  0  0  0
  -19.0383    1.7032    0.0000 C   0  0  0  0  0  0  0  0  0  0  0  0
  -20.3374    0.9532    0.0000 N   0  0  0  0  0  0  0  0  0  0  0  0
  -19.0383    3.2032    0.0000 N   0  0  0  0  0  0  0  0  0  0  0  0
  -12.5431   -0.5468    0.0000 N   0  0  0  0  0  0  0  0  0  0  0  0
   -8.3211   -0.8504    0.0000 C   0  0  0  0  0  0  0  0  0  0  0  0
   -7.5711    0.4486    0.0000 C   0  0  0  0  0  0  0  0  0  0  0  0
   -8.5748    1.5633    0.0000 C   0  0  0  0  0  0  0  0  0  0  0  0
   -9.9451    0.9532    0.0000 N   0  0  0  0  0  0  0  0  0  0  0  0
   -9.7883   -0.5385    0.0000 C   0  0  0  0  0  0  0  0  0  0  0  0
   -8.2629    3.0306    0.0000 C   0  0  0  0  0  0  0  0  0  0  0  0
   -9.3776    4.0343    0.0000 O   0  0  0  0  0  0  0  0  0  0  0  0
   -4.7860    6.8921    0.0000 O   0  0  0  0  0  0  0  0  0  0  0  0
   -5.0978    5.4248    0.0000 C   0  0  0  0  0  0  0  0  0  0  0  0
   -6.5244    4.9613    0.0000 C   0  0  0  0  0  0  0  0  0  0  0  0
   -7.6391    5.9650    0.0000 C   0  0  0  0  0  0  0  0  0  0  0  0
   -9.0657    5.5015    0.0000 C   0  0  0  0  0  0  0  0  0  0  0  0
  -10.1805    6.5052    0.0000 C   0  0  0  0  0  0  0  0  0  0  0  0
  -11.6070    6.0417    0.0000 N   0  0  0  0  0  0  0  0  0  0  0  0
  -12.7218    7.0454    0.0000 C   0  0  0  0  0  0  0  0  0  0  0  0
  -14.1483    6.5818    0.0000 N   0  0  0  0  0  0  0  0  0  0  0  0
  -12.4099    8.5126    0.0000 N   0  0  0  0  0  0  0  0  0  0  0  0
   -6.8363    3.4941    0.0000 N   0  0  0  0  0  0  0  0  0  0  0  0
    1.5000    0.0000    0.0000 C   0  0  0  0  0  0  0  0  0  0  0  0
    0.7500   -1.2990    0.0000 C   0  0  0  0  0  0  0  0  0  0  0  0
   -0.7500   -1.2990    0.0000 C   0  0  0  0  0  0  0  0  0  0  0  0
   -1.5000    0.0000    0.0000 C   0  0  0  0  0  0  0  0  0  0  0  0
   -0.7500    1.2990    0.0000 C   0  0  0  0  0  0  0  0  0  0  0  0
    0.7500    1.2990    0.0000 C   0  0  0  0  0  0  0  0  0  0  0  0
   -1.7537    2.4138    0.0000 C   0  0  0  0  0  0  0  0  0  0  0  0
   -3.1240    1.8037    0.0000 C   0  0  0  0  0  0  0  0  0  0  0  0
   -2.9672    0.3119    0.0000 N   0  0  0  0  0  0  0  0  0  0  0  0
   -1.4418    3.8810    0.0000 C   0  0  0  0  0  0  0  0  0  0  0  0
   -2.5565    4.8847    0.0000 C   0  0  0  0  0  0  0  0  0  0  0  0
   -2.2447    6.3519    0.0000 C   0  0  0  0  0  0  0  0  0  0  0  0
   -3.3594    7.3556    0.0000 O   0  0  0  0  0  0  0  0  0  0  0  0
   -3.9831    4.4211    0.0000 N   0  0  0  0  0  0  0  0  0  0  0  0
    1.1454    8.2420    0.0000 C   0  0  0  0  0  0  0  0  0  0  0  0
    1.6090    6.8154    0.0000 C   0  0  0  0  0  0  0  0  0  0  0  0
    0.3954    5.9337    0.0000 C   0  0  0  0  0  0  0  0  0  0  0  0
   -0.8181    6.8154    0.0000 N   0  0  0  0  0  0  0  0  0  0  0  0
   -0.3546    8.2420    0.0000 C   0  0  0  0  0  0  0  0  0  0  0  0
   -1.2362    9.4555    0.0000 C   0  0  0  0  0  0  0  0  0  0  0  0
   -2.7280    9.2987    0.0000 O   0  0  0  0  0  0  0  0  0  0  0  0
    3.0355    6.3519    0.0000 O   0  0  0  0  0  0  0  0  0  0  0  0
   -3.6097   10.5123    0.0000 O   0  0  0  0  0  0  0  0  0  0  0  0
   -2.9996   11.8826    0.0000 C   0  0  0  0  0  0  0  0  0  0  0  0
   -1.5078   12.0394    0.0000 C   0  0  0  0  0  0  0  0  0  0  0  0
   -0.8977   13.4097    0.0000 C   0  0  0  0  0  0  0  0  0  0  0  0
   -1.7794   14.6232    0.0000 C   0  0  0  0  0  0  0  0  0  0  0  0
   -1.1693   15.9935    0.0000 C   0  0  0  0  0  0  0  0  0  0  0  0
   -2.0510   17.2071    0.0000 N   0  0  0  0  0  0  0  0  0  0  0  0
   -1.4409   18.5774    0.0000 C   0  0  0  0  0  0  0  0  0  0  0  0
   -2.3225   19.7909    0.0000 N   0  0  0  0  0  0  0  0  0  0  0  0
    0.0509   18.7342    0.0000 N   0  0  0  0  0  0  0  0  0  0  0  0
   -0.6261   10.8258    0.0000 N   0  0  0  0  0  0  0  0  0  0  0  0
   -5.8448   14.5227    0.0000 C   0  0  0  0  0  0  0  0  0  0  0  0
   -4.6313   15.4044    0.0000 C   0  0  0  0  0  0  0  0  0  0  0  0
   -3.4178   14.5227    0.0000 C   0  0  0  0  0  0  0  0  0  0  0  0
   -3.8813   13.0961    0.0000 N   0  0  0  0  0  0  0  0  0  0  0  0
   -5.3813   13.0961    0.0000 C   0  0  0  0  0  0  0  0  0  0  0  0
   -6.2630   11.8826    0.0000 C   0  0  0  0  0  0  0  0  0  0  0  0
   -5.6529   10.5123    0.0000 O   0  0  0  0  0  0  0  0  0  0  0  0
   -4.6313   16.9044    0.0000 O   0  0  0  0  0  0  0  0  0  0  0  0
   -9.3966    8.8454    0.0000 C   0  0  0  0  0  0  0  0  0  0  0  0
   -8.0263    9.4555    0.0000 C   0  0  0  0  0  0  0  0  0  0  0  0
   -6.6560   10.0656    0.0000 C   0  0  0  0  0  0  0  0  0  0  0  0
   -7.4162    8.0852    0.0000 C   0  0  0  0  0  0  0  0  0  0  0  0
   -8.6364   10.8258    0.0000 C   0  0  0  0  0  0  0  0  0  0  0  0
  -10.1282   10.9826    0.0000 C   0  0  0  0  0  0  0  0  0  0  0  0
  -10.7383   12.3530    0.0000 O   0  0  0  0  0  0  0  0  0  0  0  0
   -7.7547   12.0394    0.0000 N   0  0  0  0  0  0  0  0  0  0  0  0
  -15.4852   10.2395    0.0000 C   0  0  0  0  0  0  0  0  0  0  0  0
  -16.9770   10.3963    0.0000 C   0  0  0  0  0  0  0  0  0  0  0  0
  -17.8587    9.1828    0.0000 C   0  0  0  0  0  0  0  0  0  0  0  0
  -17.2486    7.8124    0.0000 C   0  0  0  0  0  0  0  0  0  0  0  0
  -15.7568    7.6556    0.0000 C   0  0  0  0  0  0  0  0  0  0  0  0
  -14.8751    8.8692    0.0000 C   0  0  0  0  0  0  0  0  0  0  0  0
  -13.3833    8.7124    0.0000 C   0  0  0  0  0  0  0  0  0  0  0  0
  -12.5017    9.9259    0.0000 C   0  0  0  0  0  0  0  0  0  0  0  0
  -13.1118   11.2962    0.0000 C   0  0  0  0  0  0  0  0  0  0  0  0
  -12.2301   12.5098    0.0000 O   0  0  0  0  0  0  0  0  0  0  0  0
  -11.0099    9.7691    0.0000 N   0  0  0  0  0  0  0  0  0  0  0  0
  -19.3505    9.3396    0.0000 O   0  0  0  0  0  0  0  0  0  0  0  0
  -16.7054   12.9801    0.0000 C   0  0  0  0  0  0  0  0  0  0  0  0
  -15.2137   12.8233    0.0000 C   0  0  0  0  0  0  0  0  0  0  0  0
  -14.3320   14.0369    0.0000 C   0  0  0  0  0  0  0  0  0  0  0  0
  -12.8402   13.8801    0.0000 O   0  0  0  0  0  0  0  0  0  0  0  0
  -14.6035   11.4530    0.0000 N   0  0  0  0  0  0  0  0  0  0  0  0
  -17.3155   14.3504    0.0000 C   0  0  0  0  0  0  0  0  0  0  0  0
  -16.4339   15.5640    0.0000 O   0  0  0  0  0  0  0  0  0  0  0  0
  -18.8073   14.5072    0.0000 N   0  0  0  0  0  0  0  0  0  0  0  0
  -13.7888   19.2045    0.0000 C   0  0  0  0  0  0  0  0  0  0  0  0
  -14.6705   17.9910    0.0000 C   0  0  0  0  0  0  0  0  0  0  0  0
  -14.0604   16.6207    0.0000 C   0  0  0  0  0  0  0  0  0  0  0  0
  -12.5686   16.4639    0.0000 C   0  0  0  0  0  0  0  0  0  0  0  0
  -11.9585   15.0936    0.0000 O   0  0  0  0  0  0  0  0  0  0  0  0
  -14.9421   15.4072    0.0000 N   0  0  0  0  0  0  0  0  0  0  0  0
  -14.3989   20.5749    0.0000 C   0  0  0  0  0  0  0  0  0  0  0  0
  -13.5173   21.7884    0.0000 N   0  0  0  0  0  0  0  0  0  0  0  0
  -11.6869   17.6774    0.0000 N   0  0  0  0  0  0  0  0  0  0  0  0
  1  2  1  0
  2  3  1  0
  2  4  1  0
  4  5  1  0
  5  6  2  0
  4  7  1  1
  8  9  1  0
 10  9  1  1
 10 11  1  0
 11 12  2  0
 10 13  1  0
  8 14  1  0
 14 15  1  0
  5 13  1  0
 16 17  1  0
 17 18  1  0
 18 19  1  0
 16 20  1  0
 21 20  1  1
 21 22  1  0
 22 23  2  0
 21 24  1  0
 11 24  1  0
 25 26  1  0
 26 27  1  0
 27 28  1  0
 28 29  1  0
 27 30  1  6
 30 31  2  0
 29 25  1  0
 22 28  1  0
 32 33  1  0
 33 34  1  0
 34 35  1  0
 35 36  1  0
 34 37  1  6
 37 38  2  0
 36 32  1  0
 30 35  1  0
 39 40  2  0
 40 41  1  0
 41 42  2  0
 42 43  1  0
 43 44  2  0
 44 45  1  0
 46 45  1  1
 46 47  1  0
 47 48  2  0
 46 49  1  0
 41 50  1  0
 44 39  1  0
 37 49  1  0
 51 52  1  0
 52 53  1  0
 52 54  1  0
 55 54  1  1
 55 56  1  0
 56 57  2  0
 55 58  1  0
 47 58  1  0
 59 60  1  0
 60 61  1  0
 61 62  1  0
 62 63  1  0
 61 64  1  6
 64 65  2  0
 63 59  1  0
 56 62  1  0
 66 67  2  0
 67 68  1  0
 68 69  1  1
 69 70  1  0
 70 71  1  0
 71 72  1  0
 72 73  1  0
 73 74  1  0
 73 75  2  0
 68 76  1  0
 64 76  1  0
 77 78  1  0
 78 79  1  0
 79 80  1  0
 80 81  1  0
 79 82  1  6
 82 83  2  0
 81 77  1  0
 67 80  1  0
 84 85  2  0
 85 86  1  0
 86 87  1  1
 87 88  1  0
 88 89  1  0
 89 90  1  0
 90 91  1  0
 91 92  1  0
 91 93  2  0
 86 94  1  0
 82 94  1  0
 95 96  2  0
 96 97  1  0
 97 98  2  0
 98 99  1  0
 99100  2  0
 99101  1  0
101102  2  0
102103  1  0
101104  1  0
105104  1  6
105106  1  0
106107  2  0
105108  1  0
100 95  1  0
103 98  1  0
 85108  1  0
109110  1  0
110111  1  0
111112  1  0
112113  1  0
113114  1  0
114115  2  0
110116  1  0
113109  1  0
106112  1  0
117118  2  0
118119  1  0
119120  1  6
120121  1  0
121122  1  0
122123  1  0
123124  1  0
124125  1  0
124126  2  0
119127  1  0
114127  1  0
128129  1  0
129130  1  0
130131  1  0
131132  1  0
132133  1  0
133134  2  0
129135  1  0
132128  1  0
118131  1  0
136137  1  0
137138  1  0
137139  1  0
137140  1  0
140141  1  0
141142  2  0
140143  1  0
133143  1  0
144145  2  0
145146  1  0
146147  2  0
147148  1  0
148149  2  0
149150  1  0
151150  1  1
151152  1  0
152153  2  0
151154  1  0
146155  1  0
149144  1  0
141154  1  0
157156  1  1
157158  1  0
158159  2  0
157160  1  0
156161  1  0
161162  2  0
161163  1  0
152160  1  0
164165  1  0
166165  1  1
166167  1  0
167168  2  0
166169  1  0
164170  1  0
170171  1  0
158169  1  0
167172  1  0
M  END
>  <_BondProps>  (1) 
2:True|7:True|18:True|24:True|26:True|32:True|34:True|45:True|55:True|61:True|63:True|70:True|80:True|82:True|89:True|107:True|116:True|121:True|125:True|136:True|141:True|146:True|157:True|164:True|173:True

$$$$
