
     RDKit          2D

119118  0  0  0  0  0  0  0  0999 V2000
   12.9904   18.0000    0.0000 O   0  0  0  0  0  0  0  0  0  0  0  0
   14.2894   18.7500    0.0000 C   0  0  0  0  0  0  0  0  0  0  0  0
   15.5885   18.0000    0.0000 C   0  0  0  0  0  0  0  0  0  0  0  0
   15.5885   16.5000    0.0000 C   0  0  0  0  0  0  0  0  0  0  0  0
   16.8875   15.7500    0.0000 C   0  0  0  0  0  0  0  0  0  0  0  0
   16.8875   14.2500    0.0000 C   0  0  0  0  0  0  0  0  0  0  0  0
   18.1865   13.5000    0.0000 N   0  0  0  0  0  0  0  0  0  0  0  0
   18.1865   12.0000    0.0000 C   0  0  0  0  0  0  0  0  0  0  0  0
   19.4856   11.2500    0.0000 N   0  0  0  0  0  0  0  0  0  0  0  0
   16.8875   11.2500    0.0000 N   0  0  0  0  0  0  0  0  0  0  0  0
   16.8875   18.7500    0.0000 N   0  0  0  0  0  0  0  0  0  0  0  0
   14.2894   24.7500    0.0000 C   0  0  0  0  0  0  0  0  0  0  0  0
   14.2894   23.2500    0.0000 C   0  0  0  0  0  0  0  0  0  0  0  0
   15.5885   22.5000    0.0000 C   0  0  0  0  0  0  0  0  0  0  0  0
   12.9904   22.5000    0.0000 C   0  0  0  0  0  0  0  0  0  0  0  0
   12.9904   21.0000    0.0000 C   0  0  0  0  0  0  0  0  0  0  0  0
   11.6913   20.2500    0.0000 C   0  0  0  0  0  0  0  0  0  0  0  0
   10.3923   21.0000    0.0000 O   0  0  0  0  0  0  0  0  0  0  0  0
   14.2894   20.2500    0.0000 N   0  0  0  0  0  0  0  0  0  0  0  0
   11.1423   16.7010    0.0000 C   0  0  0  0  0  0  0  0  0  0  0  0
   10.3923   18.0000    0.0000 C   0  0  0  0  0  0  0  0  0  0  0  0
    9.6423   19.2990    0.0000 C   0  0  0  0  0  0  0  0  0  0  0  0
    8.1423   19.2990    0.0000 C   0  0  0  0  0  0  0  0  0  0  0  0
    7.3923   20.5981    0.0000 C   0  0  0  0  0  0  0  0  0  0  0  0
    5.8923   20.5981    0.0000 C   0  0  0  0  0  0  0  0  0  0  0  0
    5.1423   21.8971    0.0000 C   0  0  0  0  0  0  0  0  0  0  0  0
    9.0933   17.2500    0.0000 C   0  0  0  0  0  0  0  0  0  0  0  0
    9.0933   15.7500    0.0000 O   0  0  0  0  0  0  0  0  0  0  0  0
   11.6913   18.7500    0.0000 N   0  0  0  0  0  0  0  0  0  0  0  0
    7.7942   15.0000    0.0000 O   0  0  0  0  0  0  0  0  0  0  0  0
    6.4952   15.7500    0.0000 C   0  0  0  0  0  0  0  0  0  0  0  0
    6.4952   17.2500    0.0000 C   0  0  0  0  0  0  0  0  0  0  0  0
    5.1962   18.0000    0.0000 C   0  0  0  0  0  0  0  0  0  0  0  0
    3.8971   17.2500    0.0000 C   0  0  0  0  0  0  0  0  0  0  0  0
    2.5981   18.0000    0.0000 C   0  0  0  0  0  0  0  0  0  0  0  0
    1.2990   17.2500    0.0000 N   0  0  0  0  0  0  0  0  0  0  0  0
    0.0000   18.0000    0.0000 C   0  0  0  0  0  0  0  0  0  0  0  0
   -1.2990   17.2500    0.0000 N   0  0  0  0  0  0  0  0  0  0  0  0
    0.0000   19.5000    0.0000 N   0  0  0  0  0  0  0  0  0  0  0  0
    7.7942   18.0000    0.0000 N   0  0  0  0  0  0  0  0  0  0  0  0
    7.7942   13.5000    0.0000 O   0  0  0  0  0  0  0  0  0  0  0  0
    6.4952   12.7500    0.0000 C   0  0  0  0  0  0  0  0  0  0  0  0
    5.1962   13.5000    0.0000 C   0  0  0  0  0  0  0  0  0  0  0  0
    3.8971   12.7500    0.0000 C   0  0  0  0  0  0  0  0  0  0  0  0
    3.8971   11.2500    0.0000 C   0  0  0  0  0  0  0  0  0  0  0  0
    2.5981   10.5000    0.0000 C   0  0  0  0  0  0  0  0  0  0  0  0
    2.5981    9.0000    0.0000 N   0  0  0  0  0  0  0  0  0  0  0  0
    1.2990    8.2500    0.0000 C   0  0  0  0  0  0  0  0  0  0  0  0
    1.2990    6.7500    0.0000 N   0  0  0  0  0  0  0  0  0  0  0  0
   -0.0000    9.0000    0.0000 N   0  0  0  0  0  0  0  0  0  0  0  0
    5.1962   15.0000    0.0000 N   0  0  0  0  0  0  0  0  0  0  0  0
    6.4952    6.7500    0.0000 C   0  0  0  0  0  0  0  0  0  0  0  0
    6.4952    8.2500    0.0000 C   0  0  0  0  0  0  0  0  0  0  0  0
    5.1962    9.0000    0.0000 C   0  0  0  0  0  0  0  0  0  0  0  0
    7.7942    9.0000    0.0000 C   0  0  0  0  0  0  0  0  0  0  0  0
    7.7942   10.5000    0.0000 C   0  0  0  0  0  0  0  0  0  0  0  0
    9.0933   11.2500    0.0000 C   0  0  0  0  0  0  0  0  0  0  0  0
    9.0933   12.7500    0.0000 O   0  0  0  0  0  0  0  0  0  0  0  0
    6.4952   11.2500    0.0000 N   0  0  0  0  0  0  0  0  0  0  0  0
    8.8923    9.0000    0.0000 C   0  0  0  0  0  0  0  0  0  0  0  0
   10.3923    9.0000    0.0000 C   0  0  0  0  0  0  0  0  0  0  0  0
   11.8923    9.0000    0.0000 C   0  0  0  0  0  0  0  0  0  0  0  0
   12.6423    7.7010    0.0000 C   0  0  0  0  0  0  0  0  0  0  0  0
   14.1423    7.7010    0.0000 C   0  0  0  0  0  0  0  0  0  0  0  0
   14.8923    9.0000    0.0000 C   0  0  0  0  0  0  0  0  0  0  0  0
   16.3923    9.0000    0.0000 C   0  0  0  0  0  0  0  0  0  0  0  0
   10.3923    7.5000    0.0000 C   0  0  0  0  0  0  0  0  0  0  0  0
    9.0933    6.7500    0.0000 O   0  0  0  0  0  0  0  0  0  0  0  0
   10.3923   10.5000    0.0000 N   0  0  0  0  0  0  0  0  0  0  0  0
   10.3923    3.0000    0.0000 O   0  0  0  0  0  0  0  0  0  0  0  0
   10.3923    4.5000    0.0000 C   0  0  0  0  0  0  0  0  0  0  0  0
   11.6913    5.2500    0.0000 C   0  0  0  0  0  0  0  0  0  0  0  0
   12.9904    4.5000    0.0000 C   0  0  0  0  0  0  0  0  0  0  0  0
   12.9904    3.0000    0.0000 C   0  0  0  0  0  0  0  0  0  0  0  0
   14.2894    2.2500    0.0000 C   0  0  0  0  0  0  0  0  0  0  0  0
   14.2894    0.7500    0.0000 N   0  0  0  0  0  0  0  0  0  0  0  0
   15.5885   -0.0000    0.0000 C   0  0  0  0  0  0  0  0  0  0  0  0
   15.5885   -1.5000    0.0000 N   0  0  0  0  0  0  0  0  0  0  0  0
   16.8875    0.7500    0.0000 N   0  0  0  0  0  0  0  0  0  0  0  0
   11.6913    6.7500    0.0000 N   0  0  0  0  0  0  0  0  0  0  0  0
    9.0933    2.2500    0.0000 O   0  0  0  0  0  0  0  0  0  0  0  0
    7.7942    3.0000    0.0000 C   0  0  0  0  0  0  0  0  0  0  0  0
    7.7942    4.5000    0.0000 C   0  0  0  0  0  0  0  0  0  0  0  0
    6.4952    5.2500    0.0000 C   0  0  0  0  0  0  0  0  0  0  0  0
    5.1962    4.5000    0.0000 C   0  0  0  0  0  0  0  0  0  0  0  0
    3.8971    5.2500    0.0000 C   0  0  0  0  0  0  0  0  0  0  0  0
    2.5981    4.5000    0.0000 N   0  0  0  0  0  0  0  0  0  0  0  0
    2.5981    3.0000    0.0000 C   0  0  0  0  0  0  0  0  0  0  0  0
    1.2990    2.2500    0.0000 N   0  0  0  0  0  0  0  0  0  0  0  0
    3.8971    2.2500    0.0000 N   0  0  0  0  0  0  0  0  0  0  0  0
    9.0933    5.2500    0.0000 N   0  0  0  0  0  0  0  0  0  0  0  0
    3.8971   -2.2500    0.0000 C   0  0  0  0  0  0  0  0  0  0  0  0
    5.1962   -1.5000    0.0000 C   0  0  0  0  0  0  0  0  0  0  0  0
    6.4952   -2.2500    0.0000 C   0  0  0  0  0  0  0  0  0  0  0  0
    5.1962    0.0000    0.0000 C   0  0  0  0  0  0  0  0  0  0  0  0
    6.4952    0.7500    0.0000 C   0  0  0  0  0  0  0  0  0  0  0  0
    7.7942   -0.0000    0.0000 C   0  0  0  0  0  0  0  0  0  0  0  0
    9.0933    0.7500    0.0000 O   0  0  0  0  0  0  0  0  0  0  0  0
    6.4952    2.2500    0.0000 N   0  0  0  0  0  0  0  0  0  0  0  0
   12.9904   -1.5000    0.0000 C   0  0  0  0  0  0  0  0  0  0  0  0
   11.6913   -2.2500    0.0000 C   0  0  0  0  0  0  0  0  0  0  0  0
   11.6913   -3.7500    0.0000 C   0  0  0  0  0  0  0  0  0  0  0  0
   10.3923   -1.5000    0.0000 C   0  0  0  0  0  0  0  0  0  0  0  0
    9.0933   -2.2500    0.0000 C   0  0  0  0  0  0  0  0  0  0  0  0
    9.0933   -3.7500    0.0000 C   0  0  0  0  0  0  0  0  0  0  0  0
    7.7942   -4.5000    0.0000 O   0  0  0  0  0  0  0  0  0  0  0  0
    7.7942   -1.5000    0.0000 N   0  0  0  0  0  0  0  0  0  0  0  0
    9.0933   -8.2500    0.0000 O   0  0  0  0  0  0  0  0  0  0  0  0
    9.0933   -6.7500    0.0000 C   0  0  0  0  0  0  0  0  0  0  0  0
   10.3923   -6.0000    0.0000 C   0  0  0  0  0  0  0  0  0  0  0  0
   11.6913   -6.7500    0.0000 C   0  0  0  0  0  0  0  0  0  0  0  0
   11.6913   -8.2500    0.0000 C   0  0  0  0  0  0  0  0  0  0  0  0
   12.9904   -9.0000    0.0000 C   0  0  0  0  0  0  0  0  0  0  0  0
   12.9904  -10.5000    0.0000 N   0  0  0  0  0  0  0  0  0  0  0  0
   14.2894  -11.2500    0.0000 C   0  0  0  0  0  0  0  0  0  0  0  0
   14.2894  -12.7500    0.0000 N   0  0  0  0  0  0  0  0  0  0  0  0
   15.5885  -10.5000    0.0000 N   0  0  0  0  0  0  0  0  0  0  0  0
   10.3923   -4.5000    0.0000 N   0  0  0  0  0  0  0  0  0  0  0  0
    7.7942   -6.0000    0.0000 N   0  0  0  0  0  0  0  0  0  0  0  0
  1  2  2  0
  2  3  1  0
  3  4  1  0
  4  5  1  0
  5  6  1  0
  6  7  1  0
  7  8  1  0
  8  9  1  0
  8 10  2  0
  3 11  1  1
 12 13  1  0
 13 14  1  0
 13 15  1  0
 16 15  1  6
 16 17  1  0
 17 18  2  0
 16 19  1  0
  2 19  1  0
 21 20  1  1
 21 22  1  0
 22 23  1  0
 23 24  1  0
 24 25  1  0
 25 26  2  0
 21 27  1  0
 27 28  2  0
 21 29  1  0
 17 29  1  0
 30 31  2  0
 31 32  1  0
 32 33  1  6
 33 34  1  0
 34 35  1  0
 35 36  1  0
 36 37  1  0
 37 38  1  0
 37 39  2  0
 32 40  1  0
 27 40  1  0
 41 42  2  0
 42 43  1  0
 43 44  1  6
 44 45  1  0
 45 46  1  0
 46 47  1  0
 47 48  1  0
 48 49  1  0
 48 50  2  0
 43 51  1  0
 31 51  1  0
 52 53  1  0
 53 54  1  0
 53 55  1  0
 56 55  1  6
 56 57  1  0
 57 58  2  0
 56 59  1  0
 42 59  1  0
 61 60  1  6
 61 62  1  0
 62 63  1  0
 63 64  1  0
 64 65  1  0
 65 66  2  0
 61 67  1  0
 67 68  2  0
 61 69  1  0
 57 69  1  0
 70 71  2  0
 71 72  1  0
 72 73  1  1
 73 74  1  0
 74 75  1  0
 75 76  1  0
 76 77  1  0
 77 78  1  0
 77 79  2  0
 72 80  1  0
 67 80  1  0
 81 82  2  0
 82 83  1  0
 83 84  1  6
 84 85  1  0
 85 86  1  0
 86 87  1  0
 87 88  1  0
 88 89  1  0
 88 90  2  0
 83 91  1  0
 71 91  1  0
 92 93  1  0
 93 94  1  0
 93 95  1  0
 96 95  1  6
 96 97  1  0
 97 98  2  0
 96 99  1  0
 82 99  1  0
100101  1  0
101102  1  0
101103  1  0
104103  1  1
104105  1  0
105106  2  0
104107  1  0
 97107  1  0
108109  2  0
109110  1  0
110111  1  1
111112  1  0
112113  1  0
113114  1  0
114115  1  0
115116  1  0
115117  2  0
110118  1  0
105118  1  0
109119  1  0
M  END
>  <_BondProps>  (1) 
2:True|13:True|19:True|30:True|41:True|53:True|59:True|70:True|81:True|93:True|101:True|108:True

$$$$
