
     RDKit          2D

173180  0  0  0  0  0  0  0  0999 V2000
  -10.0013    1.0998    0.0000 O   0  0  0  0  0  0  0  0  0  0  0  0
   -8.5748    1.5633    0.0000 C   0  0  0  0  0  0  0  0  0  0  0  0
   -8.2629    3.0306    0.0000 C   0  0  0  0  0  0  0  0  0  0  0  0
   -9.3776    4.0343    0.0000 C   0  0  0  0  0  0  0  0  0  0  0  0
   -9.0657    5.5015    0.0000 C   0  0  0  0  0  0  0  0  0  0  0  0
  -10.1805    6.5052    0.0000 C   0  0  0  0  0  0  0  0  0  0  0  0
   -9.8686    7.9724    0.0000 N   0  0  0  0  0  0  0  0  0  0  0  0
  -10.9833    8.9761    0.0000 C   0  0  0  0  0  0  0  0  0  0  0  0
  -10.6714   10.4433    0.0000 N   0  0  0  0  0  0  0  0  0  0  0  0
  -12.4099    8.5126    0.0000 N   0  0  0  0  0  0  0  0  0  0  0  0
   -6.7665    3.1351    0.0000 N   0  0  0  0  0  0  0  0  0  0  0  0
  -10.9369   -3.3018    0.0000 C   0  0  0  0  0  0  0  0  0  0  0  0
   -9.5104   -2.8383    0.0000 C   0  0  0  0  0  0  0  0  0  0  0  0
   -9.1985   -1.3711    0.0000 C   0  0  0  0  0  0  0  0  0  0  0  0
  -10.3132   -0.3674    0.0000 C   0  0  0  0  0  0  0  0  0  0  0  0
   -7.7719   -0.9076    0.0000 C   0  0  0  0  0  0  0  0  0  0  0  0
   -6.6572   -1.9113    0.0000 C   0  0  0  0  0  0  0  0  0  0  0  0
   -6.9691   -3.3785    0.0000 O   0  0  0  0  0  0  0  0  0  0  0  0
   -7.4600    0.5597    0.0000 N   0  0  0  0  0  0  0  0  0  0  0  0
   -5.8543   -4.3822    0.0000 C   0  0  0  0  0  0  0  0  0  0  0  0
   -6.1662   -5.8494    0.0000 C   0  0  0  0  0  0  0  0  0  0  0  0
   -7.5928   -6.3129    0.0000 C   0  0  0  0  0  0  0  0  0  0  0  0
   -7.9047   -7.7801    0.0000 N   0  0  0  0  0  0  0  0  0  0  0  0
   -4.4278   -3.9187    0.0000 C   0  0  0  0  0  0  0  0  0  0  0  0
   -4.1159   -2.4514    0.0000 C   0  0  0  0  0  0  0  0  0  0  0  0
   -2.6893   -1.9879    0.0000 C   0  0  0  0  0  0  0  0  0  0  0  0
   -1.5746   -2.9916    0.0000 O   0  0  0  0  0  0  0  0  0  0  0  0
   -5.2306   -1.4477    0.0000 N   0  0  0  0  0  0  0  0  0  0  0  0
   -0.5402    6.2790    0.0000 C   0  0  0  0  0  0  0  0  0  0  0  0
   -1.9105    6.8891    0.0000 C   0  0  0  0  0  0  0  0  0  0  0  0
   -3.1240    6.0074    0.0000 C   0  0  0  0  0  0  0  0  0  0  0  0
   -2.9672    4.5156    0.0000 C   0  0  0  0  0  0  0  0  0  0  0  0
   -1.5969    3.9055    0.0000 C   0  0  0  0  0  0  0  0  0  0  0  0
   -0.3834    4.7872    0.0000 C   0  0  0  0  0  0  0  0  0  0  0  0
   -1.7537    2.4138    0.0000 C   0  0  0  0  0  0  0  0  0  0  0  0
   -3.2209    2.1019    0.0000 C   0  0  0  0  0  0  0  0  0  0  0  0
   -3.9709    3.4009    0.0000 N   0  0  0  0  0  0  0  0  0  0  0  0
   -0.6390    1.4101    0.0000 C   0  0  0  0  0  0  0  0  0  0  0  0
   -0.9508   -0.0572    0.0000 C   0  0  0  0  0  0  0  0  0  0  0  0
    0.1639   -1.0609    0.0000 C   0  0  0  0  0  0  0  0  0  0  0  0
    1.5905   -0.5973    0.0000 O   0  0  0  0  0  0  0  0  0  0  0  0
   -2.3774   -0.5207    0.0000 N   0  0  0  0  0  0  0  0  0  0  0  0
    2.7052   -1.6010    0.0000 O   0  0  0  0  0  0  0  0  0  0  0  0
    2.3933   -3.0682    0.0000 C   0  0  0  0  0  0  0  0  0  0  0  0
    0.9667   -3.5318    0.0000 C   0  0  0  0  0  0  0  0  0  0  0  0
    0.6549   -4.9990    0.0000 C   0  0  0  0  0  0  0  0  0  0  0  0
    1.7696   -6.0027    0.0000 C   0  0  0  0  0  0  0  0  0  0  0  0
    1.4577   -7.4699    0.0000 C   0  0  0  0  0  0  0  0  0  0  0  0
    2.5724   -8.4736    0.0000 N   0  0  0  0  0  0  0  0  0  0  0  0
    2.2606   -9.9408    0.0000 C   0  0  0  0  0  0  0  0  0  0  0  0
    3.3753  -10.9445    0.0000 N   0  0  0  0  0  0  0  0  0  0  0  0
    0.8340  -10.4044    0.0000 N   0  0  0  0  0  0  0  0  0  0  0  0
   -0.1480   -2.5281    0.0000 N   0  0  0  0  0  0  0  0  0  0  0  0
    8.5906   -5.1523    0.0000 C   0  0  0  0  0  0  0  0  0  0  0  0
    7.4759   -4.1486    0.0000 C   0  0  0  0  0  0  0  0  0  0  0  0
    7.7878   -2.6814    0.0000 C   0  0  0  0  0  0  0  0  0  0  0  0
    6.0493   -4.6121    0.0000 C   0  0  0  0  0  0  0  0  0  0  0  0
    4.9346   -3.6084    0.0000 C   0  0  0  0  0  0  0  0  0  0  0  0
    5.2465   -2.1412    0.0000 C   0  0  0  0  0  0  0  0  0  0  0  0
    4.1318   -1.1375    0.0000 O   0  0  0  0  0  0  0  0  0  0  0  0
    3.5080   -4.0719    0.0000 N   0  0  0  0  0  0  0  0  0  0  0  0
   11.7557   -2.7580    0.0000 C   0  0  0  0  0  0  0  0  0  0  0  0
   10.3291   -3.2215    0.0000 C   0  0  0  0  0  0  0  0  0  0  0  0
    9.2144   -2.2178    0.0000 C   0  0  0  0  0  0  0  0  0  0  0  0
    9.5262   -0.7506    0.0000 C   0  0  0  0  0  0  0  0  0  0  0  0
   10.9528   -0.2871    0.0000 C   0  0  0  0  0  0  0  0  0  0  0  0
   12.0675   -1.2908    0.0000 C   0  0  0  0  0  0  0  0  0  0  0  0
    8.4115    0.2531    0.0000 C   0  0  0  0  0  0  0  0  0  0  0  0
    6.9849   -0.2105    0.0000 C   0  0  0  0  0  0  0  0  0  0  0  0
    5.8702    0.7932    0.0000 C   0  0  0  0  0  0  0  0  0  0  0  0
    4.4436    0.3297    0.0000 O   0  0  0  0  0  0  0  0  0  0  0  0
    6.6731   -1.6777    0.0000 N   0  0  0  0  0  0  0  0  0  0  0  0
    2.8379    5.2716    0.0000 C   0  0  0  0  0  0  0  0  0  0  0  0
    2.5261    3.8043    0.0000 C   0  0  0  0  0  0  0  0  0  0  0  0
    3.6408    2.8006    0.0000 C   0  0  0  0  0  0  0  0  0  0  0  0
    5.0674    3.2642    0.0000 C   0  0  0  0  0  0  0  0  0  0  0  0
    5.3792    4.7314    0.0000 C   0  0  0  0  0  0  0  0  0  0  0  0
    4.2645    5.7351    0.0000 C   0  0  0  0  0  0  0  0  0  0  0  0
    6.8058    5.1949    0.0000 C   0  0  0  0  0  0  0  0  0  0  0  0
    7.1177    6.6621    0.0000 O   0  0  0  0  0  0  0  0  0  0  0  0
    6.1821    2.2605    0.0000 N   0  0  0  0  0  0  0  0  0  0  0  0
   10.4618    3.6510    0.0000 C   0  0  0  0  0  0  0  0  0  0  0  0
    9.3471    4.6547    0.0000 C   0  0  0  0  0  0  0  0  0  0  0  0
    9.6590    6.1220    0.0000 C   0  0  0  0  0  0  0  0  0  0  0  0
    8.5443    7.1257    0.0000 O   0  0  0  0  0  0  0  0  0  0  0  0
    7.9205    4.1912    0.0000 N   0  0  0  0  0  0  0  0  0  0  0  0
    8.8561    8.5929    0.0000 O   0  0  0  0  0  0  0  0  0  0  0  0
   10.2827    9.0564    0.0000 C   0  0  0  0  0  0  0  0  0  0  0  0
   11.3974    8.0527    0.0000 C   0  0  0  0  0  0  0  0  0  0  0  0
   12.8240    8.5162    0.0000 C   0  0  0  0  0  0  0  0  0  0  0  0
   13.1359    9.9835    0.0000 C   0  0  0  0  0  0  0  0  0  0  0  0
   14.5625   10.4470    0.0000 C   0  0  0  0  0  0  0  0  0  0  0  0
   14.8743   11.9142    0.0000 N   0  0  0  0  0  0  0  0  0  0  0  0
   16.3009   12.3777    0.0000 C   0  0  0  0  0  0  0  0  0  0  0  0
   16.6128   13.8449    0.0000 N   0  0  0  0  0  0  0  0  0  0  0  0
   17.4156   11.3740    0.0000 N   0  0  0  0  0  0  0  0  0  0  0  0
   11.0856    6.5855    0.0000 N   0  0  0  0  0  0  0  0  0  0  0  0
    9.8905   17.8635    0.0000 C   0  0  0  0  0  0  0  0  0  0  0  0
    8.5202   18.4736    0.0000 C   0  0  0  0  0  0  0  0  0  0  0  0
    7.3067   17.5919    0.0000 C   0  0  0  0  0  0  0  0  0  0  0  0
    7.4635   16.1001    0.0000 C   0  0  0  0  0  0  0  0  0  0  0  0
    8.8338   15.4900    0.0000 C   0  0  0  0  0  0  0  0  0  0  0  0
   10.0473   16.3717    0.0000 C   0  0  0  0  0  0  0  0  0  0  0  0
    8.6770   13.9982    0.0000 C   0  0  0  0  0  0  0  0  0  0  0  0
    7.2098   13.6864    0.0000 C   0  0  0  0  0  0  0  0  0  0  0  0
    6.4598   14.9854    0.0000 N   0  0  0  0  0  0  0  0  0  0  0  0
    9.7917   12.9945    0.0000 C   0  0  0  0  0  0  0  0  0  0  0  0
    9.4799   11.5273    0.0000 C   0  0  0  0  0  0  0  0  0  0  0  0
    8.0533   11.0638    0.0000 C   0  0  0  0  0  0  0  0  0  0  0  0
    7.7414    9.5966    0.0000 O   0  0  0  0  0  0  0  0  0  0  0  0
   10.5946   10.5236    0.0000 N   0  0  0  0  0  0  0  0  0  0  0  0
    2.9707   12.1441    0.0000 C   0  0  0  0  0  0  0  0  0  0  0  0
    1.8560   13.1478    0.0000 C   0  0  0  0  0  0  0  0  0  0  0  0
    0.4294   12.6843    0.0000 C   0  0  0  0  0  0  0  0  0  0  0  0
   -0.6853   13.6880    0.0000 N   0  0  0  0  0  0  0  0  0  0  0  0
    4.3973   12.6077    0.0000 C   0  0  0  0  0  0  0  0  0  0  0  0
    5.5120   11.6040    0.0000 C   0  0  0  0  0  0  0  0  0  0  0  0
    5.2001   10.1367    0.0000 C   0  0  0  0  0  0  0  0  0  0  0  0
    6.3148    9.1330    0.0000 O   0  0  0  0  0  0  0  0  0  0  0  0
    6.9386   12.0675    0.0000 N   0  0  0  0  0  0  0  0  0  0  0  0
   -0.5760    8.6416    0.0000 C   0  0  0  0  0  0  0  0  0  0  0  0
    0.9204    8.7462    0.0000 C   0  0  0  0  0  0  0  0  0  0  0  0
    2.0351    7.7425    0.0000 C   0  0  0  0  0  0  0  0  0  0  0  0
    1.7755    6.9887    0.0000 C   0  0  0  0  0  0  0  0  0  0  0  0
    3.4617    8.2060    0.0000 C   0  0  0  0  0  0  0  0  0  0  0  0
    4.5764    7.2023    0.0000 C   0  0  0  0  0  0  0  0  0  0  0  0
    6.0030    7.6658    0.0000 O   0  0  0  0  0  0  0  0  0  0  0  0
    3.7735    9.6732    0.0000 N   0  0  0  0  0  0  0  0  0  0  0  0
    0.3765    6.1812    0.0000 O   0  0  0  0  0  0  0  0  0  0  0  0
    1.7232    6.2752    0.0000 C   0  0  0  0  0  0  0  0  0  0  0  0
    2.8379    5.2716    0.0000 C   0  0  0  0  0  0  0  0  0  0  0  0
    2.5261    3.8043    0.0000 C   0  0  0  0  0  0  0  0  0  0  0  0
    1.0995    3.3408    0.0000 C   0  0  0  0  0  0  0  0  0  0  0  0
    0.7876    1.8736    0.0000 C   0  0  0  0  0  0  0  0  0  0  0  0
   -0.6390    1.4101    0.0000 N   0  0  0  0  0  0  0  0  0  0  0  0
   -0.9508   -0.0572    0.0000 C   0  0  0  0  0  0  0  0  0  0  0  0
   -2.2229   -0.8521    0.0000 N   0  0  0  0  0  0  0  0  0  0  0  0
    0.3736   -0.7613    0.0000 N   0  0  0  0  0  0  0  0  0  0  0  0
    4.2645    5.7351    0.0000 N   0  0  0  0  0  0  0  0  0  0  0  0
    0.0651   12.7162    0.0000 C   0  0  0  0  0  0  0  0  0  0  0  0
    0.1175   11.2171    0.0000 C   0  0  0  0  0  0  0  0  0  0  0  0
   -1.3091   10.7536    0.0000 C   0  0  0  0  0  0  0  0  0  0  0  0
    1.2322   10.2134    0.0000 C   0  0  0  0  0  0  0  0  0  0  0  0
    0.9204    8.7462    0.0000 C   0  0  0  0  0  0  0  0  0  0  0  0
   -0.5062    8.2826    0.0000 C   0  0  0  0  0  0  0  0  0  0  0  0
   -1.3233    7.0247    0.0000 O   0  0  0  0  0  0  0  0  0  0  0  0
    2.0351    7.7425    0.0000 N   0  0  0  0  0  0  0  0  0  0  0  0
   -8.4420    8.4359    0.0000 C   0  0  0  0  0  0  0  0  0  0  0  0
   -8.1301    9.9032    0.0000 C   0  0  0  0  0  0  0  0  0  0  0  0
   -6.7035   10.3667    0.0000 C   0  0  0  0  0  0  0  0  0  0  0  0
   -5.5888    9.3630    0.0000 C   0  0  0  0  0  0  0  0  0  0  0  0
   -5.9007    7.8958    0.0000 C   0  0  0  0  0  0  0  0  0  0  0  0
   -7.3273    7.4322    0.0000 C   0  0  0  0  0  0  0  0  0  0  0  0
   -4.1622    9.8265    0.0000 C   0  0  0  0  0  0  0  0  0  0  0  0
   -3.0475    8.8228    0.0000 C   0  0  0  0  0  0  0  0  0  0  0  0
   -3.3594    7.3556    0.0000 C   0  0  0  0  0  0  0  0  0  0  0  0
   -2.3753    6.2235    0.0000 O   0  0  0  0  0  0  0  0  0  0  0  0
   -1.6209    9.2863    0.0000 N   0  0  0  0  0  0  0  0  0  0  0  0
   -5.7216    2.4904    0.0000 C   0  0  0  0  0  0  0  0  0  0  0  0
   -6.8363    3.4941    0.0000 C   0  0  0  0  0  0  0  0  0  0  0  0
   -6.5244    4.9613    0.0000 C   0  0  0  0  0  0  0  0  0  0  0  0
   -5.0978    5.4248    0.0000 C   0  0  0  0  0  0  0  0  0  0  0  0
   -3.9831    4.4211    0.0000 C   0  0  0  0  0  0  0  0  0  0  0  0
   -4.2950    2.9539    0.0000 C   0  0  0  0  0  0  0  0  0  0  0  0
   -2.5565    4.8847    0.0000 C   0  0  0  0  0  0  0  0  0  0  0  0
   -2.4259    6.3790    0.0000 O   0  0  0  0  0  0  0  0  0  0  0  0
   -4.7860    6.8921    0.0000 N   0  0  0  0  0  0  0  0  0  0  0  0
    0.8235    3.1009    0.0000 C   0  0  0  0  0  0  0  0  0  0  0  0
   -0.0152    4.3445    0.0000 C   0  0  0  0  0  0  0  0  0  0  0  0
    0.2966    5.8117    0.0000 C   0  0  0  0  0  0  0  0  0  0  0  0
    1.7946    5.7331    0.0000 O   0  0  0  0  0  0  0  0  0  0  0  0
   -0.6874    6.9438    0.0000 O   0  0  0  0  0  0  0  0  0  0  0  0
   -1.4418    3.8810    0.0000 N   0  0  0  0  0  0  0  0  0  0  0  0
  1  2  2  0
  2  3  1  0
  3  4  1  0
  4  5  1  0
  5  6  1  0
  6  7  1  0
  7  8  1  0
  8  9  1  0
  8 10  2  0
  3 11  1  6
 12 13  1  0
 13 14  1  0
 14 15  1  6
 14 16  1  0
 16 17  1  0
 17 18  2  0
 16 19  1  6
  2 19  1  0
 20 21  1  0
 21 22  1  0
 22 23  1  0
 20 24  1  0
 25 24  1  6
 25 26  1  0
 26 27  2  0
 25 28  1  0
 17 28  1  0
 29 30  2  0
 30 31  1  0
 31 32  2  0
 32 33  1  0
 33 34  2  0
 33 35  1  0
 35 36  2  0
 36 37  1  0
 35 38  1  0
 39 38  1  1
 39 40  1  0
 40 41  2  0
 39 42  1  0
 34 29  1  0
 37 32  1  0
 26 42  1  0
 43 44  2  0
 44 45  1  0
 45 46  1  6
 46 47  1  0
 47 48  1  0
 48 49  1  0
 49 50  1  0
 50 51  1  0
 50 52  2  0
 45 53  1  0
 40 53  1  0
 54 55  1  0
 55 56  1  0
 55 57  1  0
 58 57  1  1
 58 59  1  0
 59 60  2  0
 58 61  1  0
 44 61  1  0
 62 63  2  0
 63 64  1  0
 64 65  2  0
 65 66  1  0
 66 67  2  0
 65 68  1  0
 69 68  1  1
 69 70  1  0
 70 71  2  0
 69 72  1  0
 67 62  1  0
 59 72  1  0
 73 74  2  0
 74 75  1  0
 75 76  2  0
 76 77  1  0
 77 78  2  0
 77 79  1  0
 79 80  2  0
 76 81  1  0
 78 73  1  0
 70 81  1  0
 83 82  1  1
 83 84  1  0
 84 85  2  0
 83 86  1  0
 79 86  1  0
 87 88  2  0
 88 89  1  0
 89 90  1  6
 90 91  1  0
 91 92  1  0
 92 93  1  0
 93 94  1  0
 94 95  1  0
 94 96  2  0
 89 97  1  0
 84 97  1  0
 98 99  2  0
 99100  1  0
100101  2  0
101102  1  0
102103  2  0
102104  1  0
104105  2  0
105106  1  0
104107  1  0
108107  1  6
108109  1  0
109110  2  0
108111  1  0
103 98  1  0
106101  1  0
 88111  1  0
112113  1  0
113114  1  0
114115  1  0
112116  1  0
117116  1  6
117118  1  0
118119  2  0
117120  1  0
109120  1  0
121122  1  0
122123  1  0
123124  1  1
123125  1  0
125126  1  0
126127  2  0
125128  1  6
118128  1  0
129130  2  0
130131  1  0
131132  1  1
132133  1  0
133134  1  0
134135  1  0
135136  1  0
136137  1  0
136138  2  0
131139  1  0
126139  1  0
140141  1  0
141142  1  0
141143  1  0
144143  1  1
144145  1  0
145146  2  0
144147  1  0
130147  1  0
148149  2  0
149150  1  0
150151  2  0
151152  1  0
152153  2  0
151154  1  0
155154  1  1
155156  1  0
156157  2  0
155158  1  0
153148  1  0
145158  1  0
159160  2  0
160161  1  0
161162  2  0
162163  1  0
163164  2  0
163165  1  0
165166  2  0
162167  1  0
164159  1  0
156167  1  0
169168  1  6
169170  1  0
170171  2  0
170172  1  0
169173  1  0
165173  1  0
M  END
>  <_BondProps>  (1) 
2:True|13:True|22:True|36:True|45:True|57:True|68:True|84:True|91:True|109:True|120:True|128:True|135:True|147:True|158:True|174:True

$$$$
