
     RDKit          2D

177186  0  0  0  0  0  0  0  0999 V2000
   10.4549   -5.0275    0.0000 C   0  0  0  0  0  0  0  0  0  0  0  0
   10.2981   -3.5357    0.0000 C   0  0  0  0  0  0  0  0  0  0  0  0
   11.5116   -2.6541    0.0000 C   0  0  0  0  0  0  0  0  0  0  0  0
   12.8820   -3.2642    0.0000 C   0  0  0  0  0  0  0  0  0  0  0  0
   13.0388   -4.7559    0.0000 C   0  0  0  0  0  0  0  0  0  0  0  0
   11.8252   -5.6376    0.0000 C   0  0  0  0  0  0  0  0  0  0  0  0
   13.2448   -1.8087    0.0000 C   0  0  0  0  0  0  0  0  0  0  0  0
   12.1658   -0.7667    0.0000 O   0  0  0  0  0  0  0  0  0  0  0  0
   14.3783   -3.3688    0.0000 N   0  0  0  0  0  0  0  0  0  0  0  0
   12.5287    0.6887    0.0000 O   0  0  0  0  0  0  0  0  0  0  0  0
   13.9706    1.1022    0.0000 C   0  0  0  0  0  0  0  0  0  0  0  0
   15.0496    0.0602    0.0000 C   0  0  0  0  0  0  0  0  0  0  0  0
   16.4915    0.4736    0.0000 C   0  0  0  0  0  0  0  0  0  0  0  0
   16.8544    1.9291    0.0000 C   0  0  0  0  0  0  0  0  0  0  0  0
   18.2963    2.3425    0.0000 C   0  0  0  0  0  0  0  0  0  0  0  0
   18.6592    3.7980    0.0000 N   0  0  0  0  0  0  0  0  0  0  0  0
   20.1011    4.2114    0.0000 C   0  0  0  0  0  0  0  0  0  0  0  0
   20.4639    5.6669    0.0000 N   0  0  0  0  0  0  0  0  0  0  0  0
   21.1801    3.1694    0.0000 N   0  0  0  0  0  0  0  0  0  0  0  0
   14.6867   -1.3953    0.0000 N   0  0  0  0  0  0  0  0  0  0  0  0
   15.6196    4.6159    0.0000 C   0  0  0  0  0  0  0  0  0  0  0  0
   14.1642    4.9787    0.0000 C   0  0  0  0  0  0  0  0  0  0  0  0
   13.3693    3.7067    0.0000 C   0  0  0  0  0  0  0  0  0  0  0  0
   14.3335    2.5576    0.0000 N   0  0  0  0  0  0  0  0  0  0  0  0
   15.7243    3.1195    0.0000 C   0  0  0  0  0  0  0  0  0  0  0  0
   11.8730    3.6020    0.0000 C   0  0  0  0  0  0  0  0  0  0  0  0
   11.2154    2.2538    0.0000 O   0  0  0  0  0  0  0  0  0  0  0  0
    8.6990    5.9845    0.0000 C   0  0  0  0  0  0  0  0  0  0  0  0
    9.5378    4.7410    0.0000 C   0  0  0  0  0  0  0  0  0  0  0  0
    8.8803    3.3928    0.0000 C   0  0  0  0  0  0  0  0  0  0  0  0
    9.7191    2.1492    0.0000 O   0  0  0  0  0  0  0  0  0  0  0  0
   11.0342    4.8456    0.0000 N   0  0  0  0  0  0  0  0  0  0  0  0
    7.2027    5.8799    0.0000 C   0  0  0  0  0  0  0  0  0  0  0  0
    6.3639    7.1234    0.0000 O   0  0  0  0  0  0  0  0  0  0  0  0
    6.5451    4.5317    0.0000 O   0  0  0  0  0  0  0  0  0  0  0  0
    6.9076   -0.6518    0.0000 C   0  0  0  0  0  0  0  0  0  0  0  0
    7.7464   -1.8954    0.0000 C   0  0  0  0  0  0  0  0  0  0  0  0
    7.0888   -3.2436    0.0000 C   0  0  0  0  0  0  0  0  0  0  0  0
    7.9276   -4.4871    0.0000 N   0  0  0  0  0  0  0  0  0  0  0  0
    7.5652    0.6964    0.0000 C   0  0  0  0  0  0  0  0  0  0  0  0
    6.7264    1.9399    0.0000 C   0  0  0  0  0  0  0  0  0  0  0  0
    5.2300    1.8353    0.0000 C   0  0  0  0  0  0  0  0  0  0  0  0
    4.3912    3.0789    0.0000 O   0  0  0  0  0  0  0  0  0  0  0  0
    7.3839    3.2881    0.0000 N   0  0  0  0  0  0  0  0  0  0  0  0
    4.2347   -1.9163    0.0000 C   0  0  0  0  0  0  0  0  0  0  0  0
    2.8865   -1.2588    0.0000 C   0  0  0  0  0  0  0  0  0  0  0  0
    3.0953    0.2266    0.0000 C   0  0  0  0  0  0  0  0  0  0  0  0
    4.5725    0.4871    0.0000 N   0  0  0  0  0  0  0  0  0  0  0  0
    5.2767   -0.8373    0.0000 C   0  0  0  0  0  0  0  0  0  0  0  0
    2.0162    1.2686    0.0000 C   0  0  0  0  0  0  0  0  0  0  0  0
    2.3791    2.7241    0.0000 O   0  0  0  0  0  0  0  0  0  0  0  0
   -1.5933   -2.4692    0.0000 O   0  0  0  0  0  0  0  0  0  0  0  0
   -1.2304   -1.0137    0.0000 C   0  0  0  0  0  0  0  0  0  0  0  0
    0.2115   -0.6003    0.0000 C   0  0  0  0  0  0  0  0  0  0  0  0
    1.2905   -1.6423    0.0000 C   0  0  0  0  0  0  0  0  0  0  0  0
    0.9276   -3.0977    0.0000 C   0  0  0  0  0  0  0  0  0  0  0  0
    2.0066   -4.1397    0.0000 C   0  0  0  0  0  0  0  0  0  0  0  0
    1.6437   -5.5951    0.0000 N   0  0  0  0  0  0  0  0  0  0  0  0
    2.7227   -6.6371    0.0000 C   0  0  0  0  0  0  0  0  0  0  0  0
    2.3599   -8.0926    0.0000 N   0  0  0  0  0  0  0  0  0  0  0  0
    4.1646   -6.2237    0.0000 N   0  0  0  0  0  0  0  0  0  0  0  0
    0.5744    0.8552    0.0000 N   0  0  0  0  0  0  0  0  0  0  0  0
   -3.4489    2.1712    0.0000 C   0  0  0  0  0  0  0  0  0  0  0  0
   -4.4908    1.0922    0.0000 C   0  0  0  0  0  0  0  0  0  0  0  0
   -3.7866   -0.2322    0.0000 C   0  0  0  0  0  0  0  0  0  0  0  0
   -2.3094    0.0283    0.0000 N   0  0  0  0  0  0  0  0  0  0  0  0
   -2.1007    1.5137    0.0000 C   0  0  0  0  0  0  0  0  0  0  0  0
   -4.4442   -1.5804    0.0000 C   0  0  0  0  0  0  0  0  0  0  0  0
   -3.6054   -2.8240    0.0000 O   0  0  0  0  0  0  0  0  0  0  0  0
   -8.2757   -0.5461    0.0000 C   0  0  0  0  0  0  0  0  0  0  0  0
   -9.1145    0.6974    0.0000 C   0  0  0  0  0  0  0  0  0  0  0  0
  -10.6108    0.5928    0.0000 C   0  0  0  0  0  0  0  0  0  0  0  0
  -11.2684   -0.7554    0.0000 C   0  0  0  0  0  0  0  0  0  0  0  0
  -10.4296   -1.9989    0.0000 C   0  0  0  0  0  0  0  0  0  0  0  0
   -8.9332   -1.8943    0.0000 C   0  0  0  0  0  0  0  0  0  0  0  0
   -8.0944   -3.1379    0.0000 C   0  0  0  0  0  0  0  0  0  0  0  0
   -6.5981   -3.0332    0.0000 C   0  0  0  0  0  0  0  0  0  0  0  0
   -5.7593   -4.2768    0.0000 C   0  0  0  0  0  0  0  0  0  0  0  0
   -4.2630   -4.1721    0.0000 O   0  0  0  0  0  0  0  0  0  0  0  0
   -5.9405   -1.6850    0.0000 N   0  0  0  0  0  0  0  0  0  0  0  0
  -11.4496    1.8364    0.0000 O   0  0  0  0  0  0  0  0  0  0  0  0
   -8.6962   -9.4704    0.0000 C   0  0  0  0  0  0  0  0  0  0  0  0
   -7.7320   -8.3214    0.0000 C   0  0  0  0  0  0  0  0  0  0  0  0
   -8.5708   -7.0778    0.0000 C   0  0  0  0  0  0  0  0  0  0  0  0
   -6.2356   -8.2167    0.0000 C   0  0  0  0  0  0  0  0  0  0  0  0
   -5.5781   -6.8685    0.0000 C   0  0  0  0  0  0  0  0  0  0  0  0
   -4.0817   -6.7639    0.0000 C   0  0  0  0  0  0  0  0  0  0  0  0
   -3.4242   -5.4157    0.0000 O   0  0  0  0  0  0  0  0  0  0  0  0
   -6.4169   -5.6250    0.0000 N   0  0  0  0  0  0  0  0  0  0  0  0
   -1.3304   -9.5017    0.0000 C   0  0  0  0  0  0  0  0  0  0  0  0
   -2.5740  -10.3405    0.0000 C   0  0  0  0  0  0  0  0  0  0  0  0
   -3.7560   -9.4170    0.0000 C   0  0  0  0  0  0  0  0  0  0  0  0
   -3.2429   -8.0074    0.0000 N   0  0  0  0  0  0  0  0  0  0  0  0
   -1.7439   -8.0598    0.0000 C   0  0  0  0  0  0  0  0  0  0  0  0
   -5.1979   -9.8304    0.0000 C   0  0  0  0  0  0  0  0  0  0  0  0
   -5.3806  -11.3193    0.0000 O   0  0  0  0  0  0  0  0  0  0  0  0
   -6.8837  -11.5600    0.0000 O   0  0  0  0  0  0  0  0  0  0  0  0
   -8.0817  -10.6574    0.0000 C   0  0  0  0  0  0  0  0  0  0  0  0
   -7.7188   -9.2019    0.0000 C   0  0  0  0  0  0  0  0  0  0  0  0
   -8.7978   -8.1599    0.0000 C   0  0  0  0  0  0  0  0  0  0  0  0
  -10.2397   -8.5734    0.0000 C   0  0  0  0  0  0  0  0  0  0  0  0
  -11.3187   -7.5314    0.0000 C   0  0  0  0  0  0  0  0  0  0  0  0
  -12.7606   -7.9448    0.0000 N   0  0  0  0  0  0  0  0  0  0  0  0
  -13.8396   -6.9029    0.0000 C   0  0  0  0  0  0  0  0  0  0  0  0
  -15.2815   -7.3163    0.0000 N   0  0  0  0  0  0  0  0  0  0  0  0
  -13.4767   -5.4474    0.0000 N   0  0  0  0  0  0  0  0  0  0  0  0
   -6.2769   -8.7885    0.0000 N   0  0  0  0  0  0  0  0  0  0  0  0
  -11.9491  -10.9861    0.0000 C   0  0  0  0  0  0  0  0  0  0  0  0
  -11.5357  -12.4280    0.0000 C   0  0  0  0  0  0  0  0  0  0  0  0
  -10.0366  -12.4804    0.0000 C   0  0  0  0  0  0  0  0  0  0  0  0
   -9.5235  -11.0708    0.0000 N   0  0  0  0  0  0  0  0  0  0  0  0
  -10.7056  -10.1473    0.0000 C   0  0  0  0  0  0  0  0  0  0  0  0
   -9.1978  -13.7239    0.0000 C   0  0  0  0  0  0  0  0  0  0  0  0
   -7.7014  -13.6193    0.0000 O   0  0  0  0  0  0  0  0  0  0  0  0
   -6.8627  -14.8628    0.0000 O   0  0  0  0  0  0  0  0  0  0  0  0
   -7.5202  -16.2110    0.0000 C   0  0  0  0  0  0  0  0  0  0  0  0
   -9.0166  -16.3157    0.0000 C   0  0  0  0  0  0  0  0  0  0  0  0
   -9.6741  -17.6638    0.0000 C   0  0  0  0  0  0  0  0  0  0  0  0
   -8.8353  -18.9074    0.0000 C   0  0  0  0  0  0  0  0  0  0  0  0
   -9.4929  -20.2556    0.0000 C   0  0  0  0  0  0  0  0  0  0  0  0
   -8.6541  -21.4991    0.0000 N   0  0  0  0  0  0  0  0  0  0  0  0
   -9.3116  -22.8473    0.0000 C   0  0  0  0  0  0  0  0  0  0  0  0
   -8.4729  -24.0909    0.0000 N   0  0  0  0  0  0  0  0  0  0  0  0
  -10.8080  -22.9520    0.0000 N   0  0  0  0  0  0  0  0  0  0  0  0
   -9.8553  -15.0721    0.0000 N   0  0  0  0  0  0  0  0  0  0  0  0
   -6.0124  -19.7876    0.0000 C   0  0  0  0  0  0  0  0  0  0  0  0
   -4.7689  -18.9488    0.0000 C   0  0  0  0  0  0  0  0  0  0  0  0
   -5.1823  -17.5069    0.0000 C   0  0  0  0  0  0  0  0  0  0  0  0
   -6.6814  -17.4546    0.0000 N   0  0  0  0  0  0  0  0  0  0  0  0
   -7.1944  -18.8641    0.0000 C   0  0  0  0  0  0  0  0  0  0  0  0
   -4.2588  -16.3249    0.0000 C   0  0  0  0  0  0  0  0  0  0  0  0
   -4.8207  -14.9341    0.0000 O   0  0  0  0  0  0  0  0  0  0  0  0
   -0.5920  -17.5976    0.0000 C   0  0  0  0  0  0  0  0  0  0  0  0
   -0.3833  -16.1122    0.0000 C   0  0  0  0  0  0  0  0  0  0  0  0
   -1.7314  -15.4547    0.0000 C   0  0  0  0  0  0  0  0  0  0  0  0
   -2.7734  -16.5337    0.0000 N   0  0  0  0  0  0  0  0  0  0  0  0
   -2.0692  -17.8581    0.0000 C   0  0  0  0  0  0  0  0  0  0  0  0
   -1.9919  -13.9774    0.0000 C   0  0  0  0  0  0  0  0  0  0  0  0
   -3.4015  -13.4644    0.0000 O   0  0  0  0  0  0  0  0  0  0  0  0
   -3.6619  -11.9872    0.0000 O   0  0  0  0  0  0  0  0  0  0  0  0
   -2.5129  -11.0230    0.0000 C   0  0  0  0  0  0  0  0  0  0  0  0
   -1.1033  -11.5361    0.0000 C   0  0  0  0  0  0  0  0  0  0  0  0
    0.0457  -10.5719    0.0000 C   0  0  0  0  0  0  0  0  0  0  0  0
   -0.2147   -9.0947    0.0000 C   0  0  0  0  0  0  0  0  0  0  0  0
    0.9343   -8.1305    0.0000 C   0  0  0  0  0  0  0  0  0  0  0  0
    0.6739   -6.6533    0.0000 N   0  0  0  0  0  0  0  0  0  0  0  0
    1.8229   -5.6891    0.0000 C   0  0  0  0  0  0  0  0  0  0  0  0
    1.9276   -4.1927    0.0000 N   0  0  0  0  0  0  0  0  0  0  0  0
    3.0664   -6.5279    0.0000 N   0  0  0  0  0  0  0  0  0  0  0  0
   -0.8429  -13.0133    0.0000 N   0  0  0  0  0  0  0  0  0  0  0  0
   -2.4356   -7.1424    0.0000 C   0  0  0  0  0  0  0  0  0  0  0  0
   -3.9128   -7.4029    0.0000 C   0  0  0  0  0  0  0  0  0  0  0  0
   -4.1215   -8.8883    0.0000 C   0  0  0  0  0  0  0  0  0  0  0  0
   -2.7733   -9.5458    0.0000 N   0  0  0  0  0  0  0  0  0  0  0  0
   -1.7314   -8.4668    0.0000 C   0  0  0  0  0  0  0  0  0  0  0  0
   -5.4460   -9.5925    0.0000 C   0  0  0  0  0  0  0  0  0  0  0  0
   -5.6806  -11.0740    0.0000 O   0  0  0  0  0  0  0  0  0  0  0  0
  -10.7700   -9.0697    0.0000 C   0  0  0  0  0  0  0  0  0  0  0  0
   -9.3145   -8.7069    0.0000 C   0  0  0  0  0  0  0  0  0  0  0  0
   -9.2622   -7.2078    0.0000 C   0  0  0  0  0  0  0  0  0  0  0  0
   -8.0424   -9.5018    0.0000 C   0  0  0  0  0  0  0  0  0  0  0  0
   -8.0948  -11.0009    0.0000 C   0  0  0  0  0  0  0  0  0  0  0  0
   -6.9291  -11.9449    0.0000 O   0  0  0  0  0  0  0  0  0  0  0  0
   -6.7180   -8.7976    0.0000 N   0  0  0  0  0  0  0  0  0  0  0  0
  -18.4808  -10.6382    0.0000 N   0  0  0  0  0  0  0  0  0  0  0  0
  -17.2087  -11.4331    0.0000 C   0  0  0  0  0  0  0  0  0  0  0  0
  -17.2610  -12.9322    0.0000 N   0  0  0  0  0  0  0  0  0  0  0  0
  -15.8843  -10.7289    0.0000 N   0  0  0  0  0  0  0  0  0  0  0  0
  -14.6122  -11.5237    0.0000 C   0  0  0  0  0  0  0  0  0  0  0  0
  -13.2878  -10.8195    0.0000 C   0  0  0  0  0  0  0  0  0  0  0  0
  -12.0157  -11.6144    0.0000 C   0  0  0  0  0  0  0  0  0  0  0  0
  -10.6913  -10.9102    0.0000 C   0  0  0  0  0  0  0  0  0  0  0  0
  -10.6389   -9.4111    0.0000 C   0  0  0  0  0  0  0  0  0  0  0  0
   -9.8003   -8.1675    0.0000 O   0  0  0  0  0  0  0  0  0  0  0  0
   -9.4192  -11.7051    0.0000 N   0  0  0  0  0  0  0  0  0  0  0  0
   -9.1073  -13.1723    0.0000 C   0  0  0  0  0  0  0  0  0  0  0  0
  -11.9110   -8.6162    0.0000 N   0  0  0  0  0  0  0  0  0  0  0  0
  1  2  1  0
  2  3  1  0
  3  4  1  0
  4  5  1  0
  5  6  1  0
  4  7  1  0
  7  8  2  0
  4  9  1  0
  6  1  1  0
 10 11  2  0
 11 12  1  0
 12 13  1  6
 13 14  1  0
 14 15  1  0
 15 16  1  0
 16 17  1  0
 17 18  1  0
 17 19  2  0
 12 20  1  0
  7 20  1  0
 21 22  1  0
 22 23  1  0
 23 24  1  0
 24 25  1  0
 23 26  1  6
 26 27  2  0
 25 21  1  0
 11 24  1  0
 29 28  1  6
 29 30  1  0
 30 31  2  0
 29 32  1  0
 28 33  1  0
 33 34  2  0
 33 35  1  0
 26 32  1  0
 36 37  1  0
 37 38  1  0
 38 39  1  0
 36 40  1  0
 41 40  1  1
 41 42  1  0
 42 43  2  0
 41 44  1  0
 30 44  1  0
 45 46  1  0
 46 47  1  0
 47 48  1  0
 48 49  1  0
 47 50  1  1
 50 51  2  0
 49 45  1  0
 42 48  1  0
 52 53  2  0
 53 54  1  0
 54 55  1  1
 55 56  1  0
 56 57  1  0
 57 58  1  0
 58 59  1  0
 59 60  1  0
 59 61  2  0
 54 62  1  0
 50 62  1  0
 63 64  1  0
 64 65  1  0
 65 66  1  0
 66 67  1  0
 65 68  1  6
 68 69  2  0
 67 63  1  0
 53 66  1  0
 70 71  2  0
 71 72  1  0
 72 73  2  0
 73 74  1  0
 74 75  2  0
 75 76  1  0
 77 76  1  6
 77 78  1  0
 78 79  2  0
 77 80  1  0
 72 81  1  0
 75 70  1  0
 68 80  1  0
 82 83  1  0
 83 84  1  0
 83 85  1  0
 86 85  1  6
 86 87  1  0
 87 88  2  0
 86 89  1  0
 78 89  1  0
 90 91  1  0
 91 92  1  0
 92 93  1  0
 93 94  1  0
 92 95  1  1
 95 96  2  0
 94 90  1  0
 87 93  1  0
 97 98  2  0
 98 99  1  0
 99100  1  6
100101  1  0
101102  1  0
102103  1  0
103104  1  0
104105  1  0
104106  2  0
 99107  1  0
 95107  1  0
108109  1  0
109110  1  0
110111  1  0
111112  1  0
110113  1  6
113114  2  0
112108  1  0
 98111  1  0
115116  2  0
116117  1  0
117118  1  6
118119  1  0
119120  1  0
120121  1  0
121122  1  0
122123  1  0
122124  2  0
117125  1  0
113125  1  0
126127  1  0
127128  1  0
128129  1  0
129130  1  0
128131  1  6
131132  2  0
130126  1  0
116129  1  0
133134  1  0
134135  1  0
135136  1  0
136137  1  0
135138  1  6
138139  2  0
137133  1  0
131136  1  0
140141  2  0
141142  1  0
142143  1  6
143144  1  0
144145  1  0
145146  1  0
146147  1  0
147148  1  0
147149  2  0
142150  1  0
138150  1  0
151152  1  0
152153  1  0
153154  1  0
154155  1  0
153156  1  6
156157  2  0
155151  1  0
141154  1  0
158159  1  0
159160  1  0
159161  1  0
161162  1  0
162163  2  0
161164  1  6
156164  1  0
165166  2  0
166167  1  0
166168  1  0
168169  1  0
169170  1  0
170171  1  0
172171  1  1
172173  1  0
173174  2  0
172175  1  0
175176  1  0
162175  1  0
173177  1  0
M  END
>  <_BondProps>  (1) 
2:True|3:True|11:True|21:True|23:True|28:True|40:True|46:True|48:True|55:True|65:True|67:True|78:True|88:True|94:True|96:True|103:True|113:True|115:True|122:True|132:True|134:True|140:True|142:True|149:True|159:True|161:True|168:True|179:True|183:True

$$$$
