
     RDKit          2D

101105  0  0  0  0  0  0  0  0999 V2000
  -10.0013    1.0998    0.0000 C   0  0  0  0  0  0  0  0  0  0  0  0
   -8.5748    1.5633    0.0000 C   0  0  0  0  0  0  0  0  0  0  0  0
   -8.2629    3.0306    0.0000 C   0  0  0  0  0  0  0  0  0  0  0  0
   -9.3776    4.0343    0.0000 O   0  0  0  0  0  0  0  0  0  0  0  0
   -7.4600    0.5597    0.0000 N   0  0  0  0  0  0  0  0  0  0  0  0
  -10.3132   -0.3674    0.0000 C   0  0  0  0  0  0  0  0  0  0  0  0
   -9.1985   -1.3711    0.0000 O   0  0  0  0  0  0  0  0  0  0  0  0
  -11.7398   -0.8309    0.0000 N   0  0  0  0  0  0  0  0  0  0  0  0
   -6.7035   10.3667    0.0000 C   0  0  0  0  0  0  0  0  0  0  0  0
   -8.1301    9.9032    0.0000 C   0  0  0  0  0  0  0  0  0  0  0  0
   -8.4420    8.4359    0.0000 C   0  0  0  0  0  0  0  0  0  0  0  0
   -7.3273    7.4322    0.0000 C   0  0  0  0  0  0  0  0  0  0  0  0
   -5.9007    7.8958    0.0000 C   0  0  0  0  0  0  0  0  0  0  0  0
   -5.5888    9.3630    0.0000 C   0  0  0  0  0  0  0  0  0  0  0  0
   -7.6391    5.9650    0.0000 C   0  0  0  0  0  0  0  0  0  0  0  0
   -6.5244    4.9613    0.0000 C   0  0  0  0  0  0  0  0  0  0  0  0
   -5.0978    5.4248    0.0000 C   0  0  0  0  0  0  0  0  0  0  0  0
   -4.7860    6.8921    0.0000 O   0  0  0  0  0  0  0  0  0  0  0  0
   -6.8363    3.4941    0.0000 N   0  0  0  0  0  0  0  0  0  0  0  0
    1.5000    0.0000    0.0000 C   0  0  0  0  0  0  0  0  0  0  0  0
    0.7500   -1.2990    0.0000 C   0  0  0  0  0  0  0  0  0  0  0  0
   -0.7500   -1.2990    0.0000 C   0  0  0  0  0  0  0  0  0  0  0  0
   -1.5000    0.0000    0.0000 C   0  0  0  0  0  0  0  0  0  0  0  0
   -0.7500    1.2990    0.0000 C   0  0  0  0  0  0  0  0  0  0  0  0
    0.7500    1.2990    0.0000 C   0  0  0  0  0  0  0  0  0  0  0  0
   -1.7537    2.4138    0.0000 C   0  0  0  0  0  0  0  0  0  0  0  0
   -3.1240    1.8037    0.0000 C   0  0  0  0  0  0  0  0  0  0  0  0
   -2.9672    0.3119    0.0000 N   0  0  0  0  0  0  0  0  0  0  0  0
   -1.4418    3.8810    0.0000 C   0  0  0  0  0  0  0  0  0  0  0  0
   -2.5565    4.8847    0.0000 C   0  0  0  0  0  0  0  0  0  0  0  0
   -2.2447    6.3519    0.0000 C   0  0  0  0  0  0  0  0  0  0  0  0
   -0.8181    6.8154    0.0000 O   0  0  0  0  0  0  0  0  0  0  0  0
   -3.9831    4.4211    0.0000 N   0  0  0  0  0  0  0  0  0  0  0  0
   -3.8504   11.2937    0.0000 C   0  0  0  0  0  0  0  0  0  0  0  0
   -4.1622    9.8265    0.0000 C   0  0  0  0  0  0  0  0  0  0  0  0
   -3.0475    8.8228    0.0000 C   0  0  0  0  0  0  0  0  0  0  0  0
   -1.6209    9.2863    0.0000 C   0  0  0  0  0  0  0  0  0  0  0  0
   -0.5062    8.2826    0.0000 O   0  0  0  0  0  0  0  0  0  0  0  0
   -3.3594    7.3556    0.0000 N   0  0  0  0  0  0  0  0  0  0  0  0
   -4.9651   12.2974    0.0000 C   0  0  0  0  0  0  0  0  0  0  0  0
   -4.6532   13.7646    0.0000 N   0  0  0  0  0  0  0  0  0  0  0  0
    1.8560   13.1478    0.0000 C   0  0  0  0  0  0  0  0  0  0  0  0
    0.4294   12.6843    0.0000 C   0  0  0  0  0  0  0  0  0  0  0  0
    0.1175   11.2171    0.0000 C   0  0  0  0  0  0  0  0  0  0  0  0
    1.2322   10.2134    0.0000 C   0  0  0  0  0  0  0  0  0  0  0  0
    0.9204    8.7462    0.0000 O   0  0  0  0  0  0  0  0  0  0  0  0
   -1.3091   10.7536    0.0000 N   0  0  0  0  0  0  0  0  0  0  0  0
    2.1678   14.6151    0.0000 C   0  0  0  0  0  0  0  0  0  0  0  0
    3.5944   15.0786    0.0000 N   0  0  0  0  0  0  0  0  0  0  0  0
    3.7735    9.6732    0.0000 C   0  0  0  0  0  0  0  0  0  0  0  0
    5.2001   10.1367    0.0000 C   0  0  0  0  0  0  0  0  0  0  0  0
    5.5120   11.6040    0.0000 O   0  0  0  0  0  0  0  0  0  0  0  0
    2.6588   10.6769    0.0000 N   0  0  0  0  0  0  0  0  0  0  0  0
   10.2827    9.0564    0.0000 C   0  0  0  0  0  0  0  0  0  0  0  0
    8.8561    8.5929    0.0000 C   0  0  0  0  0  0  0  0  0  0  0  0
    7.7414    9.5966    0.0000 C   0  0  0  0  0  0  0  0  0  0  0  0
    8.0533   11.0638    0.0000 C   0  0  0  0  0  0  0  0  0  0  0  0
    6.9386   12.0675    0.0000 O   0  0  0  0  0  0  0  0  0  0  0  0
    6.3148    9.1330    0.0000 N   0  0  0  0  0  0  0  0  0  0  0  0
   11.3974    8.0527    0.0000 C   0  0  0  0  0  0  0  0  0  0  0  0
   12.8240    8.5162    0.0000 N   0  0  0  0  0  0  0  0  0  0  0  0
   15.4843   15.8070    0.0000 C   0  0  0  0  0  0  0  0  0  0  0  0
   15.3276   17.2987    0.0000 C   0  0  0  0  0  0  0  0  0  0  0  0
   13.9572   17.9089    0.0000 C   0  0  0  0  0  0  0  0  0  0  0  0
   12.7437   17.0272    0.0000 C   0  0  0  0  0  0  0  0  0  0  0  0
   12.9005   15.5354    0.0000 C   0  0  0  0  0  0  0  0  0  0  0  0
   14.2708   14.9253    0.0000 C   0  0  0  0  0  0  0  0  0  0  0  0
   11.5302   14.9253    0.0000 C   0  0  0  0  0  0  0  0  0  0  0  0
   10.5265   16.0400    0.0000 C   0  0  0  0  0  0  0  0  0  0  0  0
   11.2765   17.3390    0.0000 N   0  0  0  0  0  0  0  0  0  0  0  0
   11.2183   13.4581    0.0000 C   0  0  0  0  0  0  0  0  0  0  0  0
    9.7917   12.9945    0.0000 C   0  0  0  0  0  0  0  0  0  0  0  0
    8.6770   13.9982    0.0000 C   0  0  0  0  0  0  0  0  0  0  0  0
    7.2504   13.5347    0.0000 O   0  0  0  0  0  0  0  0  0  0  0  0
    9.4799   11.5273    0.0000 N   0  0  0  0  0  0  0  0  0  0  0  0
    5.3329   17.0093    0.0000 C   0  0  0  0  0  0  0  0  0  0  0  0
    6.4476   16.0056    0.0000 C   0  0  0  0  0  0  0  0  0  0  0  0
    7.8742   16.4692    0.0000 C   0  0  0  0  0  0  0  0  0  0  0  0
    8.1860   17.9364    0.0000 C   0  0  0  0  0  0  0  0  0  0  0  0
    9.6126   18.3999    0.0000 O   0  0  0  0  0  0  0  0  0  0  0  0
    8.9889   15.4655    0.0000 N   0  0  0  0  0  0  0  0  0  0  0  0
    6.1357   14.5384    0.0000 O   0  0  0  0  0  0  0  0  0  0  0  0
   11.3511   20.3306    0.0000 C   0  0  0  0  0  0  0  0  0  0  0  0
    9.9245   19.8671    0.0000 C   0  0  0  0  0  0  0  0  0  0  0  0
    8.8098   20.8708    0.0000 C   0  0  0  0  0  0  0  0  0  0  0  0
    9.1216   22.3380    0.0000 C   0  0  0  0  0  0  0  0  0  0  0  0
    7.3832   20.4073    0.0000 C   0  0  0  0  0  0  0  0  0  0  0  0
    6.2685   21.4110    0.0000 C   0  0  0  0  0  0  0  0  0  0  0  0
    4.8419   20.9475    0.0000 O   0  0  0  0  0  0  0  0  0  0  0  0
    7.0713   18.9401    0.0000 N   0  0  0  0  0  0  0  0  0  0  0  0
    5.4656   23.8819    0.0000 C   0  0  0  0  0  0  0  0  0  0  0  0
    5.7775   25.3491    0.0000 C   0  0  0  0  0  0  0  0  0  0  0  0
    7.2041   25.8127    0.0000 O   0  0  0  0  0  0  0  0  0  0  0  0
    6.5803   22.8782    0.0000 N   0  0  0  0  0  0  0  0  0  0  0  0
    3.8599   28.8237    0.0000 C   0  0  0  0  0  0  0  0  0  0  0  0
    4.9746   27.8200    0.0000 C   0  0  0  0  0  0  0  0  0  0  0  0
    6.4012   28.2836    0.0000 C   0  0  0  0  0  0  0  0  0  0  0  0
    7.5159   27.2799    0.0000 O   0  0  0  0  0  0  0  0  0  0  0  0
    6.7131   29.7508    0.0000 O   0  0  0  0  0  0  0  0  0  0  0  0
    4.6628   26.3528    0.0000 N   0  0  0  0  0  0  0  0  0  0  0  0
    4.1718   30.2910    0.0000 O   0  0  0  0  0  0  0  0  0  0  0  0
  1  2  1  0
  2  3  1  0
  3  4  2  0
  2  5  1  6
  1  6  1  0
  6  7  2  0
  6  8  1  0
  9 10  2  0
 10 11  1  0
 11 12  2  0
 12 13  1  0
 13 14  2  0
 12 15  1  0
 16 15  1  6
 16 17  1  0
 17 18  2  0
 16 19  1  0
 14  9  1  0
  3 19  1  0
 20 21  2  0
 21 22  1  0
 22 23  2  0
 23 24  1  0
 24 25  2  0
 24 26  1  0
 26 27  2  0
 27 28  1  0
 26 29  1  0
 30 29  1  1
 30 31  1  0
 31 32  2  0
 30 33  1  0
 25 20  1  0
 28 23  1  0
 17 33  1  0
 34 35  1  0
 36 35  1  6
 36 37  1  0
 37 38  2  0
 36 39  1  0
 34 40  1  0
 40 41  1  0
 31 39  1  0
 42 43  1  0
 44 43  1  1
 44 45  1  0
 45 46  2  0
 44 47  1  0
 42 48  1  0
 48 49  1  0
 37 47  1  0
 50 51  1  0
 51 52  2  0
 50 53  1  0
 45 53  1  0
 54 55  1  0
 56 55  1  1
 56 57  1  0
 57 58  2  0
 56 59  1  0
 54 60  1  0
 60 61  1  0
 51 59  1  0
 62 63  2  0
 63 64  1  0
 64 65  2  0
 65 66  1  0
 66 67  2  0
 66 68  1  0
 68 69  2  0
 69 70  1  0
 68 71  1  0
 72 71  1  6
 72 73  1  0
 73 74  2  0
 72 75  1  0
 67 62  1  0
 70 65  1  0
 57 75  1  0
 77 76  1  6
 77 78  1  0
 78 79  1  0
 79 80  2  0
 78 81  1  1
 77 82  1  0
 73 81  1  0
 83 84  1  0
 84 85  1  0
 85 86  1  1
 85 87  1  0
 87 88  1  0
 88 89  2  0
 87 90  1  6
 79 90  1  0
 91 92  1  0
 92 93  2  0
 91 94  1  0
 88 94  1  0
 96 95  1  1
 96 97  1  0
 97 98  2  0
 97 99  1  0
 96100  1  0
 95101  1  0
 92100  1  0
M  END
>  <_BondProps>  (1) 
0:True|13:True|28:True|36:True|44:True|56:True|72:True|80:True|89:True|98:True

$$$$
