
     RDKit          2D

172179  0  0  0  0  0  0  0  0999 V2000
   14.3390    7.4915    0.0000 C   0  0  0  0  0  0  0  0  0  0  0  0
   15.3427    6.3768    0.0000 C   0  0  0  0  0  0  0  0  0  0  0  0
   14.8792    4.9502    0.0000 C   0  0  0  0  0  0  0  0  0  0  0  0
   15.8829    3.8355    0.0000 C   0  0  0  0  0  0  0  0  0  0  0  0
   17.3501    4.1474    0.0000 O   0  0  0  0  0  0  0  0  0  0  0  0
   13.4120    4.6384    0.0000 N   0  0  0  0  0  0  0  0  0  0  0  0
   14.8025    8.9181    0.0000 C   0  0  0  0  0  0  0  0  0  0  0  0
   13.7988   10.0328    0.0000 N   0  0  0  0  0  0  0  0  0  0  0  0
   20.3612    0.8032    0.0000 C   0  0  0  0  0  0  0  0  0  0  0  0
   18.8940    0.4914    0.0000 C   0  0  0  0  0  0  0  0  0  0  0  0
   17.8903    1.6061    0.0000 C   0  0  0  0  0  0  0  0  0  0  0  0
   18.3538    3.0327    0.0000 C   0  0  0  0  0  0  0  0  0  0  0  0
   16.4230    1.2942    0.0000 C   0  0  0  0  0  0  0  0  0  0  0  0
   15.9595   -0.1324    0.0000 C   0  0  0  0  0  0  0  0  0  0  0  0
   16.9632   -1.2471    0.0000 O   0  0  0  0  0  0  0  0  0  0  0  0
   15.4193    2.4089    0.0000 N   0  0  0  0  0  0  0  0  0  0  0  0
   16.4997   -2.6737    0.0000 C   0  0  0  0  0  0  0  0  0  0  0  0
   15.0325   -2.9856    0.0000 C   0  0  0  0  0  0  0  0  0  0  0  0
   14.0288   -1.8708    0.0000 C   0  0  0  0  0  0  0  0  0  0  0  0
   12.5615   -2.1827    0.0000 C   0  0  0  0  0  0  0  0  0  0  0  0
   12.0980   -3.6093    0.0000 O   0  0  0  0  0  0  0  0  0  0  0  0
   14.4923   -0.4442    0.0000 N   0  0  0  0  0  0  0  0  0  0  0  0
   17.5034   -3.7884    0.0000 C   0  0  0  0  0  0  0  0  0  0  0  0
   18.9706   -3.4765    0.0000 N   0  0  0  0  0  0  0  0  0  0  0  0
    7.6964   -4.5449    0.0000 C   0  0  0  0  0  0  0  0  0  0  0  0
    8.1599   -3.1183    0.0000 C   0  0  0  0  0  0  0  0  0  0  0  0
    9.6271   -2.8064    0.0000 C   0  0  0  0  0  0  0  0  0  0  0  0
   10.6308   -3.9212    0.0000 C   0  0  0  0  0  0  0  0  0  0  0  0
   10.0906   -1.3799    0.0000 C   0  0  0  0  0  0  0  0  0  0  0  0
    9.0869   -0.2651    0.0000 C   0  0  0  0  0  0  0  0  0  0  0  0
    9.5505    1.1614    0.0000 O   0  0  0  0  0  0  0  0  0  0  0  0
   11.5578   -1.0680    0.0000 N   0  0  0  0  0  0  0  0  0  0  0  0
    8.5468    2.2762    0.0000 C   0  0  0  0  0  0  0  0  0  0  0  0
    7.0795    1.9643    0.0000 C   0  0  0  0  0  0  0  0  0  0  0  0
    6.6160    0.5377    0.0000 C   0  0  0  0  0  0  0  0  0  0  0  0
    5.1488    0.2258    0.0000 C   0  0  0  0  0  0  0  0  0  0  0  0
    3.9052    1.0646    0.0000 O   0  0  0  0  0  0  0  0  0  0  0  0
    7.6197   -0.5770    0.0000 N   0  0  0  0  0  0  0  0  0  0  0  0
    9.0103    3.7028    0.0000 C   0  0  0  0  0  0  0  0  0  0  0  0
   10.4775    4.0146    0.0000 N   0  0  0  0  0  0  0  0  0  0  0  0
    1.4064   -3.5968    0.0000 O   0  0  0  0  0  0  0  0  0  0  0  0
    2.7545   -2.9392    0.0000 C   0  0  0  0  0  0  0  0  0  0  0  0
    3.2180   -1.5126    0.0000 C   0  0  0  0  0  0  0  0  0  0  0  0
    2.2144   -0.3979    0.0000 C   0  0  0  0  0  0  0  0  0  0  0  0
    2.6779    1.0287    0.0000 C   0  0  0  0  0  0  0  0  0  0  0  0
    1.6742    2.1434    0.0000 C   0  0  0  0  0  0  0  0  0  0  0  0
    2.1377    3.5700    0.0000 N   0  0  0  0  0  0  0  0  0  0  0  0
    1.1340    4.6847    0.0000 C   0  0  0  0  0  0  0  0  0  0  0  0
    1.5975    6.1113    0.0000 N   0  0  0  0  0  0  0  0  0  0  0  0
   -0.2843    4.1963    0.0000 N   0  0  0  0  0  0  0  0  0  0  0  0
    4.6853   -1.2007    0.0000 N   0  0  0  0  0  0  0  0  0  0  0  0
    4.7454   -6.2711    0.0000 C   0  0  0  0  0  0  0  0  0  0  0  0
    5.8601   -5.2674    0.0000 C   0  0  0  0  0  0  0  0  0  0  0  0
    5.2500   -3.8971    0.0000 C   0  0  0  0  0  0  0  0  0  0  0  0
    3.7582   -4.0539    0.0000 N   0  0  0  0  0  0  0  0  0  0  0  0
    3.4463   -5.5211    0.0000 C   0  0  0  0  0  0  0  0  0  0  0  0
    6.0000   -2.5981    0.0000 C   0  0  0  0  0  0  0  0  0  0  0  0
    7.5000   -2.5981    0.0000 O   0  0  0  0  0  0  0  0  0  0  0  0
    8.2500   -1.2990    0.0000 C   0  0  0  0  0  0  0  0  0  0  0  0
    7.5000   -0.0000    0.0000 C   0  0  0  0  0  0  0  0  0  0  0  0
    8.2500    1.2990    0.0000 C   0  0  0  0  0  0  0  0  0  0  0  0
    6.0000   -0.0000    0.0000 C   0  0  0  0  0  0  0  0  0  0  0  0
    5.2500    1.2990    0.0000 C   0  0  0  0  0  0  0  0  0  0  0  0
    6.0000    2.5981    0.0000 O   0  0  0  0  0  0  0  0  0  0  0  0
    5.2500   -1.2990    0.0000 N   0  0  0  0  0  0  0  0  0  0  0  0
    1.5000    0.0000    0.0000 C   0  0  0  0  0  0  0  0  0  0  0  0
    0.7500   -1.2990    0.0000 C   0  0  0  0  0  0  0  0  0  0  0  0
   -0.7500   -1.2990    0.0000 C   0  0  0  0  0  0  0  0  0  0  0  0
   -1.5000    0.0000    0.0000 C   0  0  0  0  0  0  0  0  0  0  0  0
   -0.7500    1.2990    0.0000 C   0  0  0  0  0  0  0  0  0  0  0  0
    0.7500    1.2990    0.0000 C   0  0  0  0  0  0  0  0  0  0  0  0
    1.5000    2.5981    0.0000 C   0  0  0  0  0  0  0  0  0  0  0  0
    3.0000    2.5981    0.0000 C   0  0  0  0  0  0  0  0  0  0  0  0
    3.7500    3.8971    0.0000 C   0  0  0  0  0  0  0  0  0  0  0  0
    3.3366    5.3390    0.0000 O   0  0  0  0  0  0  0  0  0  0  0  0
    3.7500    1.2990    0.0000 N   0  0  0  0  0  0  0  0  0  0  0  0
   -1.1634   -2.7410    0.0000 O   0  0  0  0  0  0  0  0  0  0  0  0
    8.2500    6.4952    0.0000 C   0  0  0  0  0  0  0  0  0  0  0  0
    7.5000    5.1962    0.0000 C   0  0  0  0  0  0  0  0  0  0  0  0
    6.0000    5.1962    0.0000 C   0  0  0  0  0  0  0  0  0  0  0  0
    5.2500    6.4952    0.0000 C   0  0  0  0  0  0  0  0  0  0  0  0
    3.7500    6.4952    0.0000 O   0  0  0  0  0  0  0  0  0  0  0  0
    5.2500    3.8971    0.0000 N   0  0  0  0  0  0  0  0  0  0  0  0
    9.7500    6.4952    0.0000 C   0  0  0  0  0  0  0  0  0  0  0  0
   10.5000    7.7942    0.0000 N   0  0  0  0  0  0  0  0  0  0  0  0
    7.8037    9.4182    0.0000 C   0  0  0  0  0  0  0  0  0  0  0  0
    6.5046   10.1682    0.0000 C   0  0  0  0  0  0  0  0  0  0  0  0
    5.3899    9.1645    0.0000 C   0  0  0  0  0  0  0  0  0  0  0  0
    6.0000    7.7942    0.0000 N   0  0  0  0  0  0  0  0  0  0  0  0
    7.4918    7.9510    0.0000 C   0  0  0  0  0  0  0  0  0  0  0  0
    3.9227    9.4764    0.0000 C   0  0  0  0  0  0  0  0  0  0  0  0
    2.9190    8.3617    0.0000 O   0  0  0  0  0  0  0  0  0  0  0  0
    1.4518    8.6736    0.0000 O   0  0  0  0  0  0  0  0  0  0  0  0
    0.9882   10.1001    0.0000 C   0  0  0  0  0  0  0  0  0  0  0  0
    1.9919   11.2149    0.0000 C   0  0  0  0  0  0  0  0  0  0  0  0
    1.5284   12.6415    0.0000 C   0  0  0  0  0  0  0  0  0  0  0  0
    0.0612   12.9533    0.0000 C   0  0  0  0  0  0  0  0  0  0  0  0
   -0.4023   14.3799    0.0000 C   0  0  0  0  0  0  0  0  0  0  0  0
   -1.8696   14.6918    0.0000 N   0  0  0  0  0  0  0  0  0  0  0  0
   -2.3331   16.1184    0.0000 C   0  0  0  0  0  0  0  0  0  0  0  0
   -3.8003   16.4302    0.0000 N   0  0  0  0  0  0  0  0  0  0  0  0
   -1.3294   17.2331    0.0000 N   0  0  0  0  0  0  0  0  0  0  0  0
    3.4591   10.9030    0.0000 N   0  0  0  0  0  0  0  0  0  0  0  0
   -2.5809   11.6255    0.0000 C   0  0  0  0  0  0  0  0  0  0  0  0
   -2.8927   10.1583    0.0000 C   0  0  0  0  0  0  0  0  0  0  0  0
   -1.5937    9.4083    0.0000 C   0  0  0  0  0  0  0  0  0  0  0  0
   -0.4790   10.4120    0.0000 N   0  0  0  0  0  0  0  0  0  0  0  0
   -1.0891   11.7823    0.0000 C   0  0  0  0  0  0  0  0  0  0  0  0
   -1.4369    7.9165    0.0000 C   0  0  0  0  0  0  0  0  0  0  0  0
   -0.0666    7.3064    0.0000 O   0  0  0  0  0  0  0  0  0  0  0  0
   -0.1592    6.0821    0.0000 O   0  0  0  0  0  0  0  0  0  0  0  0
   -1.1233    4.9330    0.0000 C   0  0  0  0  0  0  0  0  0  0  0  0
   -2.4936    5.5431    0.0000 C   0  0  0  0  0  0  0  0  0  0  0  0
   -3.7072    4.6614    0.0000 C   0  0  0  0  0  0  0  0  0  0  0  0
   -3.5504    3.1696    0.0000 C   0  0  0  0  0  0  0  0  0  0  0  0
   -4.7639    2.2879    0.0000 C   0  0  0  0  0  0  0  0  0  0  0  0
   -4.6071    0.7962    0.0000 N   0  0  0  0  0  0  0  0  0  0  0  0
   -5.8206   -0.0855    0.0000 C   0  0  0  0  0  0  0  0  0  0  0  0
   -6.0295   -1.5709    0.0000 N   0  0  0  0  0  0  0  0  0  0  0  0
   -7.1910    0.5246    0.0000 N   0  0  0  0  0  0  0  0  0  0  0  0
   -2.6504    7.0349    0.0000 N   0  0  0  0  0  0  0  0  0  0  0  0
   -1.4711    1.0672    0.0000 C   0  0  0  0  0  0  0  0  0  0  0  0
    0.0206    1.2240    0.0000 C   0  0  0  0  0  0  0  0  0  0  0  0
    0.3325    2.6912    0.0000 C   0  0  0  0  0  0  0  0  0  0  0  0
   -0.9665    3.4412    0.0000 N   0  0  0  0  0  0  0  0  0  0  0  0
   -2.0813    2.4375    0.0000 C   0  0  0  0  0  0  0  0  0  0  0  0
    1.7028    3.3013    0.0000 C   0  0  0  0  0  0  0  0  0  0  0  0
    2.6669    2.1522    0.0000 O   0  0  0  0  0  0  0  0  0  0  0  0
    2.8468    7.0103    0.0000 C   0  0  0  0  0  0  0  0  0  0  0  0
    1.3550    7.1671    0.0000 C   0  0  0  0  0  0  0  0  0  0  0  0
    0.7449    5.7968    0.0000 C   0  0  0  0  0  0  0  0  0  0  0  0
    1.8596    4.7931    0.0000 N   0  0  0  0  0  0  0  0  0  0  0  0
    3.1587    5.5431    0.0000 C   0  0  0  0  0  0  0  0  0  0  0  0
   -0.7223    5.4849    0.0000 C   0  0  0  0  0  0  0  0  0  0  0  0
   -1.6664    4.3193    0.0000 O   0  0  0  0  0  0  0  0  0  0  0  0
   -6.2743    5.7203    0.0000 C   0  0  0  0  0  0  0  0  0  0  0  0
   -5.6642    7.0906    0.0000 C   0  0  0  0  0  0  0  0  0  0  0  0
   -6.7789    8.0943    0.0000 N   0  0  0  0  0  0  0  0  0  0  0  0
   -8.0779    7.3443    0.0000 C   0  0  0  0  0  0  0  0  0  0  0  0
   -7.7660    5.8771    0.0000 N   0  0  0  0  0  0  0  0  0  0  0  0
   -4.1969    7.4025    0.0000 C   0  0  0  0  0  0  0  0  0  0  0  0
   -3.1932    6.2878    0.0000 C   0  0  0  0  0  0  0  0  0  0  0  0
   -3.6568    4.8612    0.0000 C   0  0  0  0  0  0  0  0  0  0  0  0
   -2.6531    3.7465    0.0000 O   0  0  0  0  0  0  0  0  0  0  0  0
   -1.7260    6.5996    0.0000 N   0  0  0  0  0  0  0  0  0  0  0  0
   -7.5377    4.8030    0.0000 C   0  0  0  0  0  0  0  0  0  0  0  0
   -7.2259    3.3358    0.0000 C   0  0  0  0  0  0  0  0  0  0  0  0
   -5.7341    3.1790    0.0000 C   0  0  0  0  0  0  0  0  0  0  0  0
   -5.1240    4.5493    0.0000 N   0  0  0  0  0  0  0  0  0  0  0  0
   -6.2387    5.5530    0.0000 C   0  0  0  0  0  0  0  0  0  0  0  0
   -4.9841    1.8799    0.0000 C   0  0  0  0  0  0  0  0  0  0  0  0
   -3.4841    1.8799    0.0000 O   0  0  0  0  0  0  0  0  0  0  0  0
   -2.7341    0.5809    0.0000 O   0  0  0  0  0  0  0  0  0  0  0  0
   -3.4841   -0.7181    0.0000 C   0  0  0  0  0  0  0  0  0  0  0  0
   -4.9841   -0.7181    0.0000 C   0  0  0  0  0  0  0  0  0  0  0  0
   -5.7341   -2.0172    0.0000 C   0  0  0  0  0  0  0  0  0  0  0  0
   -4.9841   -3.3162    0.0000 C   0  0  0  0  0  0  0  0  0  0  0  0
   -5.7341   -4.6152    0.0000 C   0  0  0  0  0  0  0  0  0  0  0  0
   -4.9841   -5.9143    0.0000 N   0  0  0  0  0  0  0  0  0  0  0  0
   -5.7341   -7.2133    0.0000 C   0  0  0  0  0  0  0  0  0  0  0  0
   -4.9841   -8.5124    0.0000 N   0  0  0  0  0  0  0  0  0  0  0  0
   -7.2341   -7.2133    0.0000 N   0  0  0  0  0  0  0  0  0  0  0  0
   -5.7341    0.5809    0.0000 N   0  0  0  0  0  0  0  0  0  0  0  0
    1.7659   -4.6152    0.0000 C   0  0  0  0  0  0  0  0  0  0  0  0
    1.0159   -3.3162    0.0000 C   0  0  0  0  0  0  0  0  0  0  0  0
    1.7659   -2.0172    0.0000 C   0  0  0  0  0  0  0  0  0  0  0  0
   -0.4841   -3.3162    0.0000 C   0  0  0  0  0  0  0  0  0  0  0  0
   -1.2341   -2.0172    0.0000 C   0  0  0  0  0  0  0  0  0  0  0  0
   -0.4841   -0.7181    0.0000 C   0  0  0  0  0  0  0  0  0  0  0  0
    0.9713   -1.0811    0.0000 O   0  0  0  0  0  0  0  0  0  0  0  0
   -1.7563    0.0766    0.0000 O   0  0  0  0  0  0  0  0  0  0  0  0
   -2.7341   -2.0172    0.0000 N   0  0  0  0  0  0  0  0  0  0  0  0
  1  2  1  0
  2  3  1  0
  3  4  1  0
  4  5  2  0
  3  6  1  1
  1  7  1  0
  7  8  1  0
  9 10  1  0
 10 11  1  0
 11 12  1  1
 11 13  1  0
 13 14  1  0
 14 15  2  0
 13 16  1  1
  4 16  1  0
 17 18  1  0
 19 18  1  1
 19 20  1  0
 20 21  2  0
 19 22  1  0
 17 23  1  0
 23 24  1  0
 14 22  1  0
 25 26  1  0
 26 27  1  0
 27 28  1  1
 27 29  1  0
 29 30  1  0
 30 31  2  0
 29 32  1  1
 20 32  1  0
 33 34  1  0
 35 34  1  6
 35 36  1  0
 36 37  2  0
 35 38  1  0
 33 39  1  0
 39 40  1  0
 30 38  1  0
 41 42  2  0
 42 43  1  0
 43 44  1  6
 44 45  1  0
 45 46  1  0
 46 47  1  0
 47 48  1  0
 48 49  1  0
 48 50  2  0
 43 51  1  0
 36 51  1  0
 52 53  1  0
 53 54  1  0
 54 55  1  0
 55 56  1  0
 54 57  1  6
 57 58  2  0
 56 52  1  0
 42 55  1  0
 59 60  1  0
 60 61  1  0
 60 62  1  0
 62 63  1  0
 63 64  2  0
 62 65  1  6
 57 65  1  0
 66 67  2  0
 67 68  1  0
 68 69  2  0
 69 70  1  0
 70 71  2  0
 71 72  1  0
 73 72  1  1
 73 74  1  0
 74 75  2  0
 73 76  1  0
 68 77  1  0
 71 66  1  0
 63 76  1  0
 78 79  1  0
 80 79  1  6
 80 81  1  0
 81 82  2  0
 80 83  1  0
 78 84  1  0
 84 85  1  0
 74 83  1  0
 86 87  1  0
 87 88  1  0
 88 89  1  0
 89 90  1  0
 88 91  1  6
 91 92  2  0
 90 86  1  0
 81 89  1  0
 93 94  2  0
 94 95  1  0
 95 96  1  6
 96 97  1  0
 97 98  1  0
 98 99  1  0
 99100  1  0
100101  1  0
100102  2  0
 95103  1  0
 91103  1  0
104105  1  0
105106  1  0
106107  1  0
107108  1  0
106109  1  6
109110  2  0
108104  1  0
 94107  1  0
111112  2  0
112113  1  0
113114  1  6
114115  1  0
115116  1  0
116117  1  0
117118  1  0
118119  1  0
118120  2  0
113121  1  0
109121  1  0
122123  1  0
123124  1  0
124125  1  0
125126  1  0
124127  1  6
127128  2  0
126122  1  0
112125  1  0
129130  1  0
130131  1  0
131132  1  0
132133  1  0
131134  1  6
134135  2  0
133129  1  0
127132  1  0
136137  2  0
137138  1  0
138139  1  0
139140  2  0
137141  1  0
142141  1  6
142143  1  0
143144  2  0
142145  1  0
140136  1  0
134145  1  0
146147  1  0
147148  1  0
148149  1  0
149150  1  0
148151  1  6
151152  2  0
150146  1  0
143149  1  0
153154  2  0
154155  1  0
155156  1  6
156157  1  0
157158  1  0
158159  1  0
159160  1  0
160161  1  0
160162  2  0
155163  1  0
151163  1  0
164165  1  0
165166  1  0
165167  1  0
168167  1  6
168169  1  0
169170  2  0
169171  1  0
168172  1  0
154172  1  0
M  END
>  <_BondProps>  (1) 
1:True|10:True|16:True|26:True|32:True|41:True|51:True|53:True|60:True|71:True|79:True|87:True|89:True|96:True|106:True|108:True|115:True|125:True|127:True|133:True|135:True|145:True|152:True|154:True|161:True|173:True

$$$$
