
     RDKit          2D

173177  0  0  0  0  0  0  0  0999 V2000
   -5.2500  -27.2798    0.0000 C   0  0  0  0  0  0  0  0  0  0  0  0
   -6.0000  -25.9808    0.0000 C   0  0  0  0  0  0  0  0  0  0  0  0
   -5.2500  -24.6817    0.0000 C   0  0  0  0  0  0  0  0  0  0  0  0
   -3.7500  -24.6817    0.0000 C   0  0  0  0  0  0  0  0  0  0  0  0
   -3.0000  -25.9808    0.0000 C   0  0  0  0  0  0  0  0  0  0  0  0
   -3.7500  -27.2798    0.0000 C   0  0  0  0  0  0  0  0  0  0  0  0
   -3.0000  -23.3827    0.0000 C   0  0  0  0  0  0  0  0  0  0  0  0
   -1.5000  -23.3827    0.0000 C   0  0  0  0  0  0  0  0  0  0  0  0
   -0.7500  -22.0836    0.0000 C   0  0  0  0  0  0  0  0  0  0  0  0
   -1.5000  -20.7846    0.0000 O   0  0  0  0  0  0  0  0  0  0  0  0
   -0.7500  -24.6817    0.0000 N   0  0  0  0  0  0  0  0  0  0  0  0
    3.0000  -20.7846    0.0000 C   0  0  0  0  0  0  0  0  0  0  0  0
    1.5000  -20.7846    0.0000 C   0  0  0  0  0  0  0  0  0  0  0  0
    0.7500  -19.4856    0.0000 C   0  0  0  0  0  0  0  0  0  0  0  0
   -0.7500  -19.4856    0.0000 O   0  0  0  0  0  0  0  0  0  0  0  0
    0.7500  -22.0836    0.0000 N   0  0  0  0  0  0  0  0  0  0  0  0
    3.7500  -19.4856    0.0000 O   0  0  0  0  0  0  0  0  0  0  0  0
    0.7500  -14.2894    0.0000 C   0  0  0  0  0  0  0  0  0  0  0  0
    1.5000  -15.5885    0.0000 C   0  0  0  0  0  0  0  0  0  0  0  0
    3.0000  -15.5885    0.0000 C   0  0  0  0  0  0  0  0  0  0  0  0
    0.7500  -16.8875    0.0000 C   0  0  0  0  0  0  0  0  0  0  0  0
   -0.7500  -16.8875    0.0000 C   0  0  0  0  0  0  0  0  0  0  0  0
   -1.5000  -18.1865    0.0000 O   0  0  0  0  0  0  0  0  0  0  0  0
    1.5000  -18.1865    0.0000 N   0  0  0  0  0  0  0  0  0  0  0  0
   -6.0000  -12.9904    0.0000 C   0  0  0  0  0  0  0  0  0  0  0  0
   -5.2500  -14.2894    0.0000 C   0  0  0  0  0  0  0  0  0  0  0  0
   -6.0000  -15.5885    0.0000 C   0  0  0  0  0  0  0  0  0  0  0  0
   -3.7500  -14.2894    0.0000 C   0  0  0  0  0  0  0  0  0  0  0  0
   -3.0000  -15.5885    0.0000 C   0  0  0  0  0  0  0  0  0  0  0  0
   -3.7500  -16.8875    0.0000 C   0  0  0  0  0  0  0  0  0  0  0  0
   -3.0000  -18.1865    0.0000 O   0  0  0  0  0  0  0  0  0  0  0  0
   -1.5000  -15.5885    0.0000 N   0  0  0  0  0  0  0  0  0  0  0  0
   -6.0000  -18.1865    0.0000 C   0  0  0  0  0  0  0  0  0  0  0  0
   -7.5000  -18.1865    0.0000 C   0  0  0  0  0  0  0  0  0  0  0  0
   -8.2500  -16.8875    0.0000 O   0  0  0  0  0  0  0  0  0  0  0  0
   -5.2500  -16.8875    0.0000 N   0  0  0  0  0  0  0  0  0  0  0  0
  -10.5000  -20.7846    0.0000 C   0  0  0  0  0  0  0  0  0  0  0  0
   -9.7500  -19.4856    0.0000 C   0  0  0  0  0  0  0  0  0  0  0  0
  -10.5000  -18.1865    0.0000 C   0  0  0  0  0  0  0  0  0  0  0  0
   -9.7500  -16.8875    0.0000 O   0  0  0  0  0  0  0  0  0  0  0  0
   -8.2500  -19.4856    0.0000 N   0  0  0  0  0  0  0  0  0  0  0  0
  -12.0000  -20.7846    0.0000 O   0  0  0  0  0  0  0  0  0  0  0  0
  -15.0000  -15.5885    0.0000 C   0  0  0  0  0  0  0  0  0  0  0  0
  -14.2500  -16.8875    0.0000 C   0  0  0  0  0  0  0  0  0  0  0  0
  -15.0000  -18.1865    0.0000 C   0  0  0  0  0  0  0  0  0  0  0  0
  -12.7500  -16.8875    0.0000 C   0  0  0  0  0  0  0  0  0  0  0  0
  -12.0000  -15.5885    0.0000 C   0  0  0  0  0  0  0  0  0  0  0  0
  -10.5000  -15.5885    0.0000 O   0  0  0  0  0  0  0  0  0  0  0  0
  -12.0000  -18.1865    0.0000 N   0  0  0  0  0  0  0  0  0  0  0  0
  -12.7500  -11.6913    0.0000 C   0  0  0  0  0  0  0  0  0  0  0  0
  -12.0000  -12.9904    0.0000 C   0  0  0  0  0  0  0  0  0  0  0  0
  -10.5000  -12.9904    0.0000 C   0  0  0  0  0  0  0  0  0  0  0  0
   -9.7500  -14.2894    0.0000 O   0  0  0  0  0  0  0  0  0  0  0  0
  -12.7500  -14.2894    0.0000 N   0  0  0  0  0  0  0  0  0  0  0  0
  -12.7500   -9.0933    0.0000 C   0  0  0  0  0  0  0  0  0  0  0  0
  -14.2500   -9.0933    0.0000 C   0  0  0  0  0  0  0  0  0  0  0  0
  -15.0000  -10.3923    0.0000 C   0  0  0  0  0  0  0  0  0  0  0  0
  -16.5000  -10.3923    0.0000 N   0  0  0  0  0  0  0  0  0  0  0  0
  -12.0000  -10.3923    0.0000 C   0  0  0  0  0  0  0  0  0  0  0  0
  -10.5000  -10.3923    0.0000 C   0  0  0  0  0  0  0  0  0  0  0  0
   -9.7500   -9.0933    0.0000 C   0  0  0  0  0  0  0  0  0  0  0  0
  -10.5000   -7.7942    0.0000 O   0  0  0  0  0  0  0  0  0  0  0  0
   -9.7500  -11.6913    0.0000 N   0  0  0  0  0  0  0  0  0  0  0  0
   -5.8601   -5.1249    0.0000 C   0  0  0  0  0  0  0  0  0  0  0  0
   -5.2500   -6.4952    0.0000 C   0  0  0  0  0  0  0  0  0  0  0  0
   -3.7582   -6.3384    0.0000 N   0  0  0  0  0  0  0  0  0  0  0  0
   -3.4463   -4.8712    0.0000 C   0  0  0  0  0  0  0  0  0  0  0  0
   -4.7454   -4.1212    0.0000 N   0  0  0  0  0  0  0  0  0  0  0  0
   -6.0000   -7.7942    0.0000 C   0  0  0  0  0  0  0  0  0  0  0  0
   -7.5000   -7.7942    0.0000 C   0  0  0  0  0  0  0  0  0  0  0  0
   -8.2500   -6.4952    0.0000 C   0  0  0  0  0  0  0  0  0  0  0  0
   -9.7500   -6.4952    0.0000 O   0  0  0  0  0  0  0  0  0  0  0  0
   -8.2500   -9.0933    0.0000 N   0  0  0  0  0  0  0  0  0  0  0  0
   -7.8366    0.1429    0.0000 C   0  0  0  0  0  0  0  0  0  0  0  0
   -8.2500   -1.2990    0.0000 C   0  0  0  0  0  0  0  0  0  0  0  0
   -9.7500   -1.2990    0.0000 C   0  0  0  0  0  0  0  0  0  0  0  0
   -7.5000   -2.5981    0.0000 C   0  0  0  0  0  0  0  0  0  0  0  0
   -8.2500   -3.8971    0.0000 C   0  0  0  0  0  0  0  0  0  0  0  0
   -9.7500   -3.8971    0.0000 C   0  0  0  0  0  0  0  0  0  0  0  0
  -10.7920   -4.9761    0.0000 O   0  0  0  0  0  0  0  0  0  0  0  0
   -7.5000   -5.1962    0.0000 N   0  0  0  0  0  0  0  0  0  0  0  0
  -14.6634    0.1429    0.0000 C   0  0  0  0  0  0  0  0  0  0  0  0
  -14.2500   -1.2990    0.0000 C   0  0  0  0  0  0  0  0  0  0  0  0
  -14.9337   -2.0069    0.0000 C   0  0  0  0  0  0  0  0  0  0  0  0
  -12.7500   -1.2990    0.0000 C   0  0  0  0  0  0  0  0  0  0  0  0
  -12.0000   -2.5981    0.0000 C   0  0  0  0  0  0  0  0  0  0  0  0
  -12.7500   -3.8971    0.0000 C   0  0  0  0  0  0  0  0  0  0  0  0
  -12.0000   -5.1962    0.0000 O   0  0  0  0  0  0  0  0  0  0  0  0
  -10.5000   -2.5981    0.0000 N   0  0  0  0  0  0  0  0  0  0  0  0
  -16.5583   -4.6471    0.0000 C   0  0  0  0  0  0  0  0  0  0  0  0
  -16.5583   -3.1471    0.0000 C   0  0  0  0  0  0  0  0  0  0  0  0
  -15.1317   -2.6836    0.0000 C   0  0  0  0  0  0  0  0  0  0  0  0
  -14.2500   -3.8971    0.0000 N   0  0  0  0  0  0  0  0  0  0  0  0
  -15.1317   -5.1106    0.0000 C   0  0  0  0  0  0  0  0  0  0  0  0
  -14.6682   -1.2570    0.0000 C   0  0  0  0  0  0  0  0  0  0  0  0
  -13.3200   -0.5994    0.0000 O   0  0  0  0  0  0  0  0  0  0  0  0
  -14.3219    4.2891    0.0000 C   0  0  0  0  0  0  0  0  0  0  0  0
  -15.7485    3.8256    0.0000 C   0  0  0  0  0  0  0  0  0  0  0  0
  -16.6302    5.0391    0.0000 N   0  0  0  0  0  0  0  0  0  0  0  0
  -15.7485    6.2527    0.0000 C   0  0  0  0  0  0  0  0  0  0  0  0
  -14.3219    5.7891    0.0000 N   0  0  0  0  0  0  0  0  0  0  0  0
  -16.2120    2.3990    0.0000 C   0  0  0  0  0  0  0  0  0  0  0  0
  -15.2083    1.2843    0.0000 C   0  0  0  0  0  0  0  0  0  0  0  0
  -13.7411    1.5962    0.0000 C   0  0  0  0  0  0  0  0  0  0  0  0
  -13.0370    0.2717    0.0000 O   0  0  0  0  0  0  0  0  0  0  0  0
  -15.6718   -0.1423    0.0000 N   0  0  0  0  0  0  0  0  0  0  0  0
   -9.8796    5.0731    0.0000 C   0  0  0  0  0  0  0  0  0  0  0  0
  -11.3468    4.7612    0.0000 C   0  0  0  0  0  0  0  0  0  0  0  0
  -12.3505    5.8759    0.0000 C   0  0  0  0  0  0  0  0  0  0  0  0
  -11.8104    3.3346    0.0000 C   0  0  0  0  0  0  0  0  0  0  0  0
  -10.8067    2.2199    0.0000 C   0  0  0  0  0  0  0  0  0  0  0  0
  -11.4406    0.8605    0.0000 O   0  0  0  0  0  0  0  0  0  0  0  0
  -13.2776    3.0228    0.0000 N   0  0  0  0  0  0  0  0  0  0  0  0
   -6.8685    1.7289    0.0000 C   0  0  0  0  0  0  0  0  0  0  0  0
   -8.3357    1.4171    0.0000 C   0  0  0  0  0  0  0  0  0  0  0  0
   -8.7993   -0.0095    0.0000 C   0  0  0  0  0  0  0  0  0  0  0  0
   -7.7956   -1.1243    0.0000 O   0  0  0  0  0  0  0  0  0  0  0  0
   -9.3394    2.5318    0.0000 N   0  0  0  0  0  0  0  0  0  0  0  0
  -12.3684   -1.5349    0.0000 C   0  0  0  0  0  0  0  0  0  0  0  0
  -12.6802   -0.0677    0.0000 C   0  0  0  0  0  0  0  0  0  0  0  0
  -11.3812    0.6823    0.0000 C   0  0  0  0  0  0  0  0  0  0  0  0
  -10.2665   -0.3214    0.0000 N   0  0  0  0  0  0  0  0  0  0  0  0
  -10.8766   -1.6917    0.0000 C   0  0  0  0  0  0  0  0  0  0  0  0
  -11.2244    2.1741    0.0000 C   0  0  0  0  0  0  0  0  0  0  0  0
  -10.3010    3.3562    0.0000 O   0  0  0  0  0  0  0  0  0  0  0  0
  -15.8291    5.9682    0.0000 C   0  0  0  0  0  0  0  0  0  0  0  0
  -14.8650    4.8191    0.0000 C   0  0  0  0  0  0  0  0  0  0  0  0
  -13.4947    5.4292    0.0000 C   0  0  0  0  0  0  0  0  0  0  0  0
  -13.3379    6.9210    0.0000 C   0  0  0  0  0  0  0  0  0  0  0  0
  -12.2811    4.5475    0.0000 C   0  0  0  0  0  0  0  0  0  0  0  0
  -10.9108    5.1576    0.0000 C   0  0  0  0  0  0  0  0  0  0  0  0
   -9.5200    4.5958    0.0000 O   0  0  0  0  0  0  0  0  0  0  0  0
  -12.4379    3.0558    0.0000 N   0  0  0  0  0  0  0  0  0  0  0  0
  -10.2837   11.1248    0.0000 C   0  0  0  0  0  0  0  0  0  0  0  0
  -10.4404    9.6330    0.0000 C   0  0  0  0  0  0  0  0  0  0  0  0
   -9.2269    8.7513    0.0000 C   0  0  0  0  0  0  0  0  0  0  0  0
   -7.8566    9.3614    0.0000 C   0  0  0  0  0  0  0  0  0  0  0  0
   -9.3837    7.2595    0.0000 C   0  0  0  0  0  0  0  0  0  0  0  0
   -8.1702    6.3779    0.0000 C   0  0  0  0  0  0  0  0  0  0  0  0
   -8.3270    4.8861    0.0000 O   0  0  0  0  0  0  0  0  0  0  0  0
  -10.7540    6.6494    0.0000 N   0  0  0  0  0  0  0  0  0  0  0  0
   -4.2160    6.7164    0.0000 C   0  0  0  0  0  0  0  0  0  0  0  0
   -5.5863    6.1063    0.0000 C   0  0  0  0  0  0  0  0  0  0  0  0
   -5.7431    4.6145    0.0000 C   0  0  0  0  0  0  0  0  0  0  0  0
   -7.1135    4.0044    0.0000 O   0  0  0  0  0  0  0  0  0  0  0  0
   -6.7999    6.9880    0.0000 N   0  0  0  0  0  0  0  0  0  0  0  0
   -3.4729    1.3594    0.0000 C   0  0  0  0  0  0  0  0  0  0  0  0
   -3.6297   -0.1324    0.0000 C   0  0  0  0  0  0  0  0  0  0  0  0
   -2.4161   -1.0141    0.0000 C   0  0  0  0  0  0  0  0  0  0  0  0
   -2.5729   -2.5059    0.0000 O   0  0  0  0  0  0  0  0  0  0  0  0
   -1.0458   -0.4040    0.0000 O   0  0  0  0  0  0  0  0  0  0  0  0
   -4.6864    2.2410    0.0000 C   0  0  0  0  0  0  0  0  0  0  0  0
   -6.0567    1.6309    0.0000 C   0  0  0  0  0  0  0  0  0  0  0  0
   -7.2703    2.5126    0.0000 O   0  0  0  0  0  0  0  0  0  0  0  0
   -4.5296    3.7328    0.0000 N   0  0  0  0  0  0  0  0  0  0  0  0
   -9.1109   -2.5728    0.0000 C   0  0  0  0  0  0  0  0  0  0  0  0
   -9.2677   -4.0646    0.0000 C   0  0  0  0  0  0  0  0  0  0  0  0
  -10.6381   -4.6747    0.0000 C   0  0  0  0  0  0  0  0  0  0  0  0
  -10.7949   -6.1665    0.0000 N   0  0  0  0  0  0  0  0  0  0  0  0
   -7.7406   -1.9627    0.0000 C   0  0  0  0  0  0  0  0  0  0  0  0
   -7.5838   -0.4710    0.0000 C   0  0  0  0  0  0  0  0  0  0  0  0
   -8.7974    0.4107    0.0000 C   0  0  0  0  0  0  0  0  0  0  0  0
   -9.9793   -0.5128    0.0000 O   0  0  0  0  0  0  0  0  0  0  0  0
   -6.2135    0.1391    0.0000 N   0  0  0  0  0  0  0  0  0  0  0  0
  -11.1197    6.6430    0.0000 C   0  0  0  0  0  0  0  0  0  0  0  0
  -10.9108    5.1576    0.0000 C   0  0  0  0  0  0  0  0  0  0  0  0
  -12.3881    4.8973    0.0000 C   0  0  0  0  0  0  0  0  0  0  0  0
   -9.6973    4.2760    0.0000 C   0  0  0  0  0  0  0  0  0  0  0  0
   -9.8541    2.7842    0.0000 C   0  0  0  0  0  0  0  0  0  0  0  0
  -11.2244    2.1741    0.0000 C   0  0  0  0  0  0  0  0  0  0  0  0
  -11.9055    0.8376    0.0000 O   0  0  0  0  0  0  0  0  0  0  0  0
  -12.7162    2.0170    0.0000 N   0  0  0  0  0  0  0  0  0  0  0  0
   -8.6406    1.9025    0.0000 N   0  0  0  0  0  0  0  0  0  0  0  0
  1  2  2  0
  2  3  1  0
  3  4  2  0
  4  5  1  0
  5  6  2  0
  4  7  1  0
  7  8  1  0
  8  9  1  0
  9 10  2  0
  8 11  1  1
  6  1  1  0
 13 12  1  6
 13 14  1  0
 14 15  2  0
 13 16  1  0
 12 17  1  0
  9 16  1  0
 18 19  1  0
 19 20  1  0
 19 21  1  0
 21 22  1  0
 22 23  2  0
 21 24  1  6
 14 24  1  0
 25 26  1  0
 26 27  1  0
 26 28  1  0
 29 28  1  6
 29 30  1  0
 30 31  2  0
 29 32  1  0
 22 32  1  0
 33 34  1  0
 34 35  2  0
 33 36  1  0
 30 36  1  0
 38 37  1  1
 38 39  1  0
 39 40  2  0
 38 41  1  0
 37 42  1  0
 34 41  1  0
 43 44  1  0
 44 45  1  0
 44 46  1  0
 46 47  1  0
 47 48  2  0
 46 49  1  1
 39 49  1  0
 51 50  1  1
 51 52  1  0
 52 53  2  0
 51 54  1  0
 47 54  1  0
 55 56  1  0
 56 57  1  0
 57 58  1  0
 55 59  1  0
 60 59  1  1
 60 61  1  0
 61 62  2  0
 60 63  1  0
 52 63  1  0
 64 65  2  0
 65 66  1  0
 66 67  1  0
 67 68  2  0
 65 69  1  0
 70 69  1  6
 70 71  1  0
 71 72  2  0
 70 73  1  0
 68 64  1  0
 61 73  1  0
 74 75  1  0
 75 76  1  0
 75 77  1  0
 78 77  1  6
 78 79  1  0
 79 80  2  0
 78 81  1  0
 71 81  1  0
 82 83  1  0
 83 84  1  0
 83 85  1  0
 86 85  1  6
 86 87  1  0
 87 88  2  0
 86 89  1  0
 79 89  1  0
 90 91  1  0
 91 92  1  0
 92 93  1  0
 93 94  1  0
 92 95  1  1
 95 96  2  0
 94 90  1  0
 87 93  1  0
 97 98  2  0
 98 99  1  0
 99100  1  0
100101  2  0
 98102  1  0
103102  1  1
103104  1  0
104105  2  0
103106  1  0
101 97  1  0
 95106  1  0
107108  1  0
108109  1  0
108110  1  0
110111  1  0
111112  2  0
110113  1  1
104113  1  0
115114  1  1
115116  1  0
116117  2  0
115118  1  0
111118  1  0
119120  1  0
120121  1  0
121122  1  0
122123  1  0
121124  1  1
124125  2  0
123119  1  0
116122  1  0
126127  1  0
127128  1  0
128129  1  6
128130  1  0
130131  1  0
131132  2  0
130133  1  1
124133  1  0
134135  1  0
135136  1  0
136137  1  6
136138  1  0
138139  1  0
139140  2  0
138141  1  1
131141  1  0
143142  1  1
143144  1  0
144145  2  0
143146  1  0
139146  1  0
147148  1  0
148149  1  0
149150  2  0
149151  1  0
152147  1  1
152153  1  0
153154  2  0
152155  1  0
144155  1  0
156157  1  0
157158  1  0
158159  1  0
156160  1  0
161160  1  1
161162  1  0
162163  2  0
161164  1  0
153164  1  0
165166  1  0
166167  1  0
166168  1  0
169168  1  6
169170  1  0
170171  2  0
170172  1  0
169173  1  0
162173  1  0
M  END
>  <_BondProps>  (1) 
6:True|11:True|19:True|27:True|36:True|44:True|49:True|58:True|68:True|77:True|85:True|91:True|93:True|103:True|111:True|116:True|122:True|124:True|132:True|140:True|145:True|154:True|163:True|171:True

$$$$
